
*** ChampSim Multicore Out-of-Order Simulator ***

Warmup Instructions: 2000000
Simulation Instructions: 3000000
Number of CPUs: 1
LLC sets: 1024
LLC ways: 32
Off-chip DRAM Size: 4096 MB Channels: 1 Width: 64-bit Data Rate: 3200 MT/s

CPU 0 runs ../traces//bfs-3.trace.gz
CPU 0 Bimodal branch predictor
here
here
here
here
here
here
here
here
here
here
here
here
here
here
here
here
here
here
here
here
here
here
here
here
here
here
here
here
here
here
here
here
here
here
here
here
here
here
here
here
here
here
here
here
here
here
here
here
here
here
here
here
here
here
here
here
here
here
here
here
here
here
here
here
here
here
here
here
here
here
here
here
here
here
here
here
here
here
here
here
here
here
here
here
here
here
here
here
here
here
here
here
here
here
here
here
here
here
here
here
here
here
here
here
here
here
here
here
here
here
here
here
here
here
here
here
here
here
here
here
here
here
here
here
here
here
here
here
here
here
here
here
here
here
here
here
here
here
here
here
here
here
here
here
here
here
here
here
here
here
here
here
here
here
here
here
here
here
here
here
here
here
here
here
here
here
here
here
here
here
here
here
here
here
here
here
here
here
here
here
here
here
here
here
here
here
here
here
here
here
here
here
here
here
here
here
here
here
here
here
here
here
here
here
here
here
here
here
here
here
here
here
here
here
here
here
here
here
here
here
here
here
here
here
here
here
here
here
here
here
here
here
here
here
here
here
here
here
here
here
here
here
here
here
here
here
here
here
here
here
here
here
here
here
here
here
here
here
here
here
here
here
here
here
here
here
here
here
here
here
here
here
here
here
here
here
here
here
here
here
here
here
here
here
here
here
here
here
here
here
here
here
here
here
here
here
here
here
here
here
here
here
here
here
here
here
here
here
here
here
here
here
here
here
here
here
here
here
here
here
here
here
here
here
here
here
here
here
here
here
here
here
here
here
here
here
here
here
here
here
here
here
here
here
here
here
here
here
here
here
here
here
here
here
here
here
here
here
here
here
here
here
here
here
here
here
here
here
here
here
here
here
here
here
here
here
here
here
here
here
here
here
here
here
here
here
here
here
here
here
here
here
here
here
here
here
here
here
here
here
here
here
here
here
here
here
here
here
here
here
here
here
here
here
here
here
here
here
here
here
here
here
here
here
here
here
here
here
here
here
here
here
here
here
here
here
here
here
here
here
here
here
here
here
here
here
here
here
here
here
here
here
here
here
here
here
here
here
here
here
here
here
here
here
here
here
here
here
here
here
here
here
here
here
here
here
here
here
here
here
here
here
here
here
here
here
here
here
here
here
here
here
here
here
here
here
here
here
here
here
here
here
here
here
here
here
here
here
here
here
here
here
here
here
here
here
here
here
here
here
here
here
here
here
here
here
here
here
here
here
here
here
here
here
here
here
here
here
here
here
here
here
here
here
here
here
here
here
here
here
here
here
here
here
here
here
here
here
here
here
here
here
here
here
here
here
here
here
here
here
here
here
here
here
here
here
here
here
here
here
here
here
here
here
here
here
here
here
here
here
here
here
here
here
here
here
here
here
here
here
here
here
here
here
here
here
here
here
here
here
here
here
here
here
here
here
here
here
here
here
here
here
here
here
here
here
here
here
here
here
here
here
here
here
here
here
here
here
here
here
here
here
here
here
here
here
here
here
here
here
here
here
here
here
here
here
here
here
here
here
here
here
here
here
here
here
here
here
here
here
here
here
here
here
here
here
here
here
here
here
here
here
here
here
here
here
here
here
here
here
here
here
here
here
here
here
here
here
here
here
here
here
here
here
here
here
here
here
here
here
here
here
here
here
here
here
here
here
here
here
here
here
here
here
here
here
here
here
here
here
here
here
here
here
here
here
here
here
here
here
here
here
here
here
here
here
here
here
here
here
here
here
here
here
here
here
here
here
here
here
here
here
here
here
here
here
here
here
here
here
here
here
here
here
here
here
here
here
here
here
here
here
here
here
here
here
here
here
here
here
here
here
here
here
here
here
here
here
here
here
here
here
here
here
here
here
here
here
here
here
here
here
here
here
here
here
here
here
here
here
here
here
here
here
here
here
here
here
here
here
here
here
here
here
here
here
here
here
here
here
here
here
here
here
here
here
here
here
here
here
here
here
here
here
here
here
here
here
here
here
here
here
here
here
here
here
here
here
here
here
here
here
here
here
here
here
here
here
here
here
here
here
here
here
here
here
here
here
here
here
here
here
here
here
here
here
here
here
here
here
here
here
here
here
here
here
here
here
here
here
here
here
here
here
here
here
here
here
here
here
here
here
here
here
here
here
here
here
here
here
here
here
here
here
here
here
here
here
here
here
here
here
here
here
here
here
here
here
here
here
here
here
here
here
here
here
here
here
here
here
here
here
here
here
here
here
here
here
here
here
here
here
here
here
here
here
here
here
here
here
here
here
here
here
here
here
here
here
here
here
here
here
here
here
here
here
here
here
here
here
here
here
here
here
here
here
here
here
here
here
here
here
here
here
here
here
here
here
here
here
here
here
here
here
here
here
here
here
here
here
here
here
here
here
here
here
here
here
here
here
here
here
here
here
here
here
here
here
here
here
here
here
here
here
here
here
here
here
here
here
here
here
here
here
here
here
here
here
here
here
here
here
here
here
here
here
here
here
here
here
here
here
here
here
here
here
here
here
here
here
here
here
here
here
here
here
here
here
here
here
here
here
here
here
here
here
here
here
here
here
here
here
here
here
here
here
here
here
here
here
here
here
here
here
here
here
here
here
here
here
here
here
here
here
here
here
here
here
here
here
here
here
here
here
here
here
here
here
here
here
here
here
here
here
here
here
here
here
here
here
here
here
here
here
here
here
here
here
here
here
here
here
here
here
here
here
here
here
here
here
here
here
here
here
here
here
here
here
here
here
here
here
here
here
here
here
here
here
here
here
here
here
here
here
here
here
here
here
here
here
here
here
here
here
here
here
here
here
here
here
here
here
here
here
here
here
here
here
here
here
here
here
here
here
here
here
here
here
here
here
here
here
here
here
here
here
here
here
here
here
here
here
here
here
here
here
here
here
here
here
here
here
here
here
here
here
here
here
here
here
here
here
here
here
here
here
here
here
here
here
here
here
here
here
here
here
here
here
here
here
here
here
here
here
here
here
here
here
here
here
here
here
here
here
here
here
here
here
here
here
here
here
here
here
here
here
here
here
here
here
here
here
here
here
here
here
here
here
here
here
here
here
here
here
here
here
here
here
here
here
here
here
here
here
here
here
here
here
here
here
here
here
here
here
here
here
here
here
here
here
here
here
here
here
here
here
here
here
here
here
here
here
here
here
here
here
here
here
here
here
here
here
here
here
here
here
here
here
here
here
here
here
here
here
here
here
here
here
here
here
here
here
here
here
here
here
here
here
here
here
here
here
here
here
here
here
here
here
here
here
here
here
here
here
here
here
here
here
here
here
here
here
here
here
here
here
here
here
here
here
here
here
here
here
here
here
here
here
here
here
here
here
here
here
here
here
here
here
here
here
here
here
here
here
here
here
here
here
here
here
here
here
here
here
here
here
here
here
here
here
here
here
here
here
here
here
here
here
here
here
here
here
here
here
here
here
here
here
here
here
here
here
here
here
here
here
here
here
here
here
here
here
here
here
here
here
here
here
here
here
here
here
here
here
here
here
here
here
here
here
here
here
here
here
here
here
here
here
here
here
here
here
here
here
here
here
here
here
here
here
here
here
here
here
here
here
here
here
here
here
here
here
here
here
here
here
here
here
here
here
here
here
here
here
here
here
here
here
here
here
here
here
here
here
here
here
here
here
here
here
here
here
here
here
here
here
here
here
here
here
here
here
here
here
here
here
here
here
here
here
here
here
here
here
here
here
here
here
here
here
here
here
here
here
here
here
here
here
here
here
here
here
here
here
here
here
here
here
here
here
here
here
here
here
here
here
here
here
here
here
here
here
here
here
here
here
here
here
here
here
here
here
here
here
here
here
here
here
here
here
here
here
here
here
here
here
here
here
here
here
here
here
here
here
here
here
here
here
here
here
here
here
here
here
here
here
here
here
here
here
here
here
here
here
here
here
here
here
here
here
here
here
here
here
here
here
here
here
here
here
here
here
here
here
here
here
here
here
here
here
here
here
here
here
here
here
here
here
here
here
here
here
here
here
here
here
here
here
here
here
here
here
here
here
here
here
here
here
here
here
here
here
here
here
here
here
here
here
here
here
here
here
here
here
here
here
here
here
here
here
here
here
here
here
here
here
here
here
here
here
here
here
here
here
here
here
here
here
here
here
here
here
here
here
here
here
here
here
here
here
here
here
here
here
here
here
here
here
here
here
here
here
here
here
here
here
here
here
here
here
here
here
here
here
here
here
here
here
here
here
here
here
here
here
here
here
here
here
here
here
here
here
here
here
here
here
here
here
here
here
here
here
here
here
here
here
here
here
here
here
here
here
here
here
here
here
here
here
here
here
here
here
here
here
here
here
here
here
here
here
here
here
here
here
here
here
here
here
here
here
here
here
here
here
here
here
here
here
here
here
here
here
here
here
here
here
here
here
here
here
here
here
here
here
here
here
here
here
here
here
here
here
here
here
here
here
here
here
here
here
here
here
here
here
here
here
here
here
here
here
here
here
here
here
here
here
here
here
here
here
here
here
here
here
here
here
here
here
here
here
here
here
here
here
here
here
here
here
here
here
here
here
here
here
here
here
here
here
here
here
here
here
here
here
here
here
here
here
here
here
here
here
here
here
here
here
here
here
here
here
here
here
here
here
here
here
here
here
here
here
here
here
here
here
here
here
here
here
here
here
here
here
here
here
here
here
here
here
here
here
here
here
here
here
here
here
here
here
here
here
here
here
here
here
here
here
here
here
here
here
here
here
here
here
here
here
here
here
here
here
here
here
here
here
here
here
here
here
here
here
here
here
here
here
here
here
here
here
here
here
here
here
here
here
here
here
here
here
here
here
here
here
here
here
here
here
here
here
here
here
here
here
here
here
here
here
here
here
here
here
here
here
here
here
here
here
here
here
here
here
here
here
here
here
here
here
here
here
here
here
here
here
here
here
here
here
here
here
here
here
here
here
here
here
here
here
here
here
here
here
here
here
here
here
here
here
here
here
here
here
here
here
here
here
here
here
here
here
here
here
here
here
here
here
here
here
here
here
here
here
here
here
here
here
here
here
here
here
here
here
here
here
here
here
here
here
here
here
here
here
here
here
here
here
here
here
here
here
here
here
here
here
here
here
here
here
here
here
here
here
here
here
here
here
here
here
here
here
here
here
here
here
here
here
here
here
here
here
here
here
here
here
here
here
here
here
here
here
here
here
here
here
here
here
here
here
here
here
here
here
here
here
here
here
here
here
here
here
here
here
here
here
here
here
here
here
here
here
here
here
here
here
here
here
here
here
here
here
here
here
here
here
here
here
here
here
here
here
here
here
here
here
here
here
here
here
here
here
here
here
here
here
here
here
here
here
here
here
here
here
here
here
here
here
here
here
here
here
here
here
here
here
here
here
here
here
here
here
here
here
here
here
here
here
here
here
here
here
here
here
here
here
here
here
here
here
here
here
here
here
here
here
here
here
here
here
here
here
here
here
here
here
here
here
here
here
here
here
here
here
here
here
here
here
here
here
here
here
here
here
here
here
here
here
here
here
here
here
here
here
here
here
here
here
here
here
here
here
here
here
here
here
here
here
here
here
here
here
here
here
here
here
here
here
here
here
here
here
here
here
here
here
here
here
here
here
here
here
here
here
here
here
here
here
here
here
here
here
here
here
here
here
here
here
here
here
here
here
here
here
here
here
here
here
here
here
here
here
here
here
here
here
here
here
here
here
here
here
here
here
here
here
here
here
here
here
here
here
here
here
here
here
here
here
here
here
here
here
here
here
here
here
here
here
here
here
here
here
here
here
here
here
here
here
here
here
here
here
here
here
here
here
here
here
here
here
here
here
here
here
here
here
here
here
here
here
here
here
here
here
here
here
here
here
here
here
here
here
here
here
here
here
here
here
here
here
here
here
here
here
here
here
here
here
here
here
here
here
here
here
here
here
here
here
here
here
here
here
here
here
here
here
here
here
here
here
here
here
here
here
here
here
here
here
here
here
here
here
here
here
here
here
here
here
here
here
here
here
here
here
here
here
here
here
here
here
here
here
here
here
here
here
here
here
here
here
here
here
here
here
here
here
here
here
here
here
here
here
here
here
here
here
here
here
here
here
here
here
here
here
here
here
here
here
here
here
here
here
here
here
here
here
here
here
here
here
here
here
here
here
here
here
here
here
here
here
here
here
here
here
here
here
here
here
here
here
here
here
here
here
here
here
here
here
here
here
here
here
here
here
here
here
here
here
here
here
here
here
here
here
here
here
here
here
here
here
here
here
here
here
here
here
here
here
here
here
here
here
here
here
here
here
here
here
here
here
here
here
here
here
here
here
here
here
here
here
here
here
here
here
here
here
here
here
here
here
here
here
here
here
here
here
here
here
here
here
here
here
here
here
here
here
here
here
here
here
here
here
here
here
here
here
here
here
here
here
here
here
here
here
here
here
here
here
here
here
here
here
here
here
here
here
here
here
here
here
here
here
here
here
here
here
here
here
here
here
here
here
here
here
here
here
here
here
here
here
here
here
here
here
here
here
here
here
here
here
here
here
here
here
here
here
here
here
here
here
here
here
here
here
here
here
here
here
here
here
here
here
here
here
here
here
here
here
here
here
here
here
here
here
here
here
here
here
here
here
here
here
here
here
here
here
here
here
here
here
here
here
here
here
here
here
here
here
here
here
here
here
here
here
here
here
here
here
here
here
here
here
here
here
here
here
here
here
here
here
here
here
here
here
here
here
here
here
here
here
here
here
here
here
here
here
here
here
here
here
here
here
here
here
here
here
here
here
here
here
here
here
here
here
here
here
here
here
here
here
here
here
here
here
here
here
here
here
here
here
here
here
here
here
here
here
here
here
here
here
here
here
here
here
here
here
here
here
here
here
here
here
here
here
here
here
here
here
here
here
here
here
here
here
here
here
here
here
here
here
here
here
here
here
here
here
here
here
here
here
here
here
here
here
here
here
here
here
here
here
here
here
here
here
here
here
here
here
here
here
here
here
here
here
here
here
here
here
here
here
here
here
here
here
here
here
here
here
here
here
here
here
here
here
here
here
here
here
here
here
here
here
here
here
here
here
here
here
here
here
here
here
here
here
here
here
here
here
here
here
here
here
here
here
here
here
here
here
here
here
here
here
here
here
here
here
here
here
here
here
here
here
here
here
here
here
here
here
here
here
here
here
here
here
here
here
here
here
here
here
here
here
here
here
here
here
here
here
here
here
here
here
here
here
here
here
here
here
here
here
here
here
here
here
here
here
here
here
here
here
here
here
here
here
here
here
here
here
here
here
here
here
here
here
here
here
here
here
here
here
here
here
here
here
here
here
here
here
here
here
here
here
here
here
here
here
here
here
here
here
here
here
here
here
here
here
here
here
here
here
here
here
here
here
here
here
here
here
here
here
here
here
here
here
here
here
here
here
here
here
here
here
here
here
here
here
here
here
here
here
here
here
here
here
here
here
here
here
here
here
here
here
here
here
here
here
here
here
here
here
here
here
here
here
here
here
here
here
here
here
here
here
here
here
here
here
here
here
here
here
here
here
here
here
here
here
here
here
here
here
here
here
here
here
here
here
here
here
here
here
here
here
here
here
here
here
here
here
here
here
here
here
here
here
here
here
here
here
here
here
here
here
here
here
here
here
here
here
here
here
here
here
here
here
here
here
here
here
here
here
here
here
here
here
here
here
here
here
here
here
here
here
here
here
here
here
here
here
here
here
here
here
here
here
here
here
here
here
here
here
here
here
here
here
here
here
here
here
here
here
here
here
here
here
here
here
here
here
here
here
here
here
here
here
here
here
here
here
here
here
here
here
here
here
here
here
here
here
here
here
here
here
here
here
here
here
here
here
here
here
here
here
here
here
here
here
here
here
here
here
here
here
here
here
here
here
here
here
here
here
here
here
here
here
here
here
here
here
here
here
here
here
here
here
here
here
here
here
here
here
here
here
here
here
here
here
here
here
here
here
here
here
here
here
here
here
here
here
here
here
here
here
here
here
here
here
here
here
here
here
here
here
here
here
here
here
here
here
here
here
here
here
here
here
here
here
here
here
here
here
here
here
here
here
here
here
here
here
here
here
here
here
here
here
here
here
here
here
here
here
here
here
here
here
here
here
here
here
here
here
here
here
here
here
here
here
here
here
here
here
here
here
here
here
here
here
here
here
here
here
here
here
here
here
here
here
here
here
here
here
here
here
here
here
here
here
here
here
here
here
here
here
here
here
here
here
here
here
here
here
here
here
here
here
here
here
here
here
here
here
here
here
here
here
here
here
here
here
here
here
here
here
here
here
here
here
here
here
here
here
here
here
here
here
here
here
here
here
here
here
here
here
here
here
here
here
here
here
here
here
here
here
here
here
here
here
here
here
here
here
here
here
here
here
here
here
here
here
here
here
here
here
here
here
here
here
here
here
here
here
here
here
here
here
here
here
here
here
here
here
here
here
here
here
here
here
here
here
here
here
here
here
here
here
here
here
here
here
here
here
here
here
here
here
here
here
here
here
here
here
here
here
here
here
here
here
here
here
here
here
here
here
here
here
here
here
here
here
here
here
here
here
here
here
here
here
here
here
here
here
here
here
here
here
here
here
here
here
here
here
here
here
here
here
here
here
here
here
here
here
here
here
here
here
here
here
here
here
here
here
here
here
here
here
here
here
here
here
here
here
here
here
here
here
here
here
here
here
here
here
here
here
here
here
here
here
here
here
here
here
here
here
here
here
here
here
here
here
here
here
here
here
here
here
here
here
here
here
here
here
here
here
here
here
here
here
here
here
here
here
here
here
here
here
here
here
here
here
here
here
here
here
here
here
here
here
here
here
here
here
here
here
here
here
here
here
here
here
here
here
here
here
here
here
here
here
here
here
here
here
here
here
here
here
here
here
here
here
here
here
here
here
here
here
here
here
here
here
here
here
here
here
here
here
here
here
here
here
here
here
here
here
here
here
here
here
here
here
here
here
here
here
here
here
here
here
here
here
here
here
here
here
here
here
here
here
here
here
here
here
here
here
here
here
here
here
here
here
here
here
here
here
here
here
here
here
here
here
here
here
here
here
here
here
here
here
here
here
here
here
here
here
here
here
here
here
here
here
here
here
here
here
here
here
here
here
here
here
here
here
here
here
here
here
here
here
here
here
here
here
here
here
here
here
here
here
here
here
here
here
here
here
here
here
here
here
here
here
here
here
here
here
here
here
here
here
here
here
here
here
here
here
here
here
here
here
here
here
here
here
here
here
here
here
here
here
here
here
here
here
here
here
here
here
here
here
here
here
here
here
here
here
here
here
here
here
here
here
here
here
here
here
here
here
here
here
here
here
here
here
here
here
here
here
here
here
here
here
here
here
here
here
here
here
here
here
here
here
here
here
here
here
here
here
here
here
here
here
here
here
here
here
here
here
here
here
here
here
here
here
here
here
here
here
here
here
here
here
here
here
here
here
here
here
here
here
here
here
here
here
here
here
here
here
here
here
here
here
here
here
here
here
here
here
here
here
here
here
here
here
here
here
here
here
here
here
here
here
here
here
here
here
here
here
here
here
here
here
here
here
here
here
here
here
here
here
here
here
here
here
here
here
here
here
here
here
here
here
here
here
here
here
here
here
here
here
here
here
here
here
here
here
here
here
here
here
here
here
here
here
here
here
here
here
here
here
here
here
here
here
here
here
here
here
here
here
here
here
here
here
here
here
here
here
here
here
here
here
here
here
here
here
here
here
here
here
here
here
here
here
here
here
here
here
here
here
here
here
here
here
here
here
here
here
here
here
here
here
here
here
here
here
here
here
here
here
here
here
here
here
here
here
here
here
here
here
here
here
here
here
here
here
here
here
here
here
here
here
here
here
here
here
here
here
here
here
here
here
here
here
here
here
here
here
here
here
here
here
here
here
here
here
here
here
here
here
here
here
here
here
here
here
here
here
here
here
here
here
here
here
here
here
here
here
here
here
here
here
here
here
here
here
here
here
here
here
here
here
here
here
here
here
here
here
here
here
here
here
here
here
here
here
here
here
here
here
here
here
here
here
here
here
here
here
here
here
here
here
here
here
here
here
here
here
here
here
here
here
here
here
here
here
here
here
here
here
here
here
here
here
here
here
here
here
here
here
here
here
here
here
here
here
here
here
here
here
here
here
here
here
here
here
here
here
here
here
here
here
here
here
here
here
here
here
here
here
here
here
here
here
here
here
here
here
here
here
here
here
here
here
here
here
here
here
here
here
here
here
here
here
here
here
here
here
here
here
here
here
here
here
here
here
here
here
here
here
here
here
here
here
here
here
here
here
here
here
here
here
here
here
here
here
here
here
here
here
here
here
here
here
here
here
here
here
here
here
here
here
here
here
here
here
here
here
here
here
here
here
here
here
here
here
here
here
here
here
here
here
here
here
here
here
here
here
here
here
here
here
here
here
here
here
here
here
here
here
here
here
here
here
here
here
here
here
here
here
here
here
here
here
here
here
here
here
here
here
here
here
here
here
here
here
here
here
here
here
here
here
here
here
here
here
here
here
here
here
here
here
here
here
here
here
here
here
here
here
here
here
here
here
here
here
here
here
here
here
here
here
here
here
here
here
here
here
here
here
here
here
here
here
here
here
here
here
here
here
here
here
here
here
here
here
here
here
here
here
here
here
here
here
here
here
here
here
here
here
here
here
here
here
here
here
here
here
here
here
here
here
here
here
here
here
here
here
here
here
here
here
here
here
here
here
here
here
here
here
here
here
here
here
here
here
here
here
here
here
here
here
here
here
here
here
here
here
here
here
here
here
here
here
here
here
here
here
here
here
here
here
here
here
here
here
here
here
here
here
here
here
here
here
here
here
here
here
here
here
here
here
here
here
here
here
here
here
here
here
here
here
here
here
here
here
here
here
here
here
here
here
here
here
here
here
here
here
here
here
here
here
here
here
here
here
here
here
here
here
here
here
here
here
here
here
here
here
here
here
here
here
here
here
here
here
here
here
here
here
here
here
here
here
here
here
here
here
here
here
here
here
here
here
here
here
here
here
here
here
here
here
here
here
here
here
here
here
here
here
here
here
here
here
here
here
here
here
here
here
here
here
here
here
here
here
here
here
here
here
here
here
here
here
here
here
here
here
here
here
here
here
here
here
here
here
here
here
here
here
here
here
here
here
here
here
here
here
here
here
here
here
here
here
here
here
here
here
here
here
here
here
here
here
here
here
here
here
here
here
here
here
here
here
here
here
here
here
here
here
here
here
here
here
here
here
here
here
here
here
here
here
here
here
here
here
here
here
here
here
here
here
here
here
here
here
here
here
here
here
here
here
here
here
here
here
here
here
here
here
here
here
here
here
here
here
here
here
here
here
here
here
here
here
here
here
here
here
here
here
here
here
here
here
here
here
here
here
here
here
here
here
here
here
here
here
here
here
here
here
here
here
here
here
here
here
here
here
here
here
here
here
here
here
here
here
here
here
here
here
here
here
here
here
here
here
here
here
here
here
here
here
here
here
here
here
here
here
here
here
here
here
here
here
here
here
here
here
here
here
here
here
here
here
here
here
here
here
here
here
here
here
here
here
here
here
here
here
here
here
here
here
here
here
here
here
here
here
here
here
here
here
here
here
here
here
here
here
here
here
here
here
here
here
here
here
here
here
here
here
here
here
here
here
here
here
here
here
here
here
here
here
here
here
here
here
here
here
here
here
here
here
here
here
here
here
here
here
here
here
here
here
here
here
here
here
here
here
here
here
here
here
here
here
here
here
here
here
here
here
here
here
here
here
here
here
here
here
here
here
here
here
here
here
here
here
here
here
here
here
here
here
here
here
here
here
here
here
here
here
here
here
here
here
here
here
here
here
here
here
here
here
here
here
here
here
here
here
here
here
here
here
here
here
here
here
here
here
here
here
here
here
here
here
here
here
here
here
here
here
here
here
here
here
here
here
here
here
here
here
here
here
here
here
here
here
here
here
here
here
here
here
here
here
here
here
here
here
here
here
here
here
here
here
here
here
here
here
here
here
here
here
here
here
here
here
here
here
here
here
here
here
here
here
here
here
here
here
here
here
here
here
here
here
here
here
here
here
here
here
here
here
here
here
here
here
here
here
here
here
here
here
here
here
here
here
here
here
here
here
here
here
here
here
here
here
here
here
here
here
here
here
here
here
here
here
here
here
here
here
here
here
here
here
here
here
here
here
here
here
here
here
here
here
here
here
here
here
here
here
here
here
here
here
here
here
here
here
here
here
here
here
here
here
here
here
here
here
here
here
here
here
here
here
here
here
here
here
here
here
here
here
here
here
here
here
here
here
here
here
here
here
here
here
here
here
here
here
here
here
here
here
here
here
here
here
here
here
here
here
here
here
here
here
here
here
here
here
here
here
here
here
here
here
here
here
here
here
here
here
here
here
here
here
here
here
here
here
here
here
here
here
here
here
here
here
here
here
here
here
here
here
here
here
here
here
here
here
here
here
here
here
here
here
here
here
here
here
here
here
here
here
here
here
here
here
here
here
here
here
here
here
here
here
here
here
here
here
here
here
here
here
here
here
here
here
here
here
here
here
here
here
here
here
here
here
here
here
here
here
here
here
here
here
here
here
here
here
here
here
here
here
here
here
here
here
here
here
here
here
here
here
here
here
here
here
here
here
here
here
here
here
here
here
here
here
here
here
here
here
here
here
here
here
here
here
here
here
here
here
here
here
here
here
here
here
here
here
here
here
here
here
here
here
here
here
here
here
here
here
here
here
here
here
here
here
here
here
here
here
here
here
here
here
here
here
here
here
here
here
here
here
here
here
here
here
here
here
here
here
here
here
here
here
here
here
here
here
here
here
here
here
here
here
here
here
here
here
here
here
here
here
here
here
here
here
here
here
here
here
here
here
here
here
here
here
here
here
here
here
here
here
here
here
here
here
here
here
here
here
here
here
here
here
here
here
here
here
here
here
here
here
here
here
here
here
here
here
here
here
here
here
here
here
here
here
here
here
here
here
here
here
here
here
here
here
here
here
here
here
here
here
here
here
here
here
here
here
here
here
here
here
here
here
here
here
here
here
here
here
here
here
here
here
here
here
here
here
here
here
here
here
here
here
here
here
here
here
here
here
here
here
here
here
here
here
here
here
here
here
here
here
here
here
here
here
here
here
here
here
here
here
here
here
here
here
here
here
here
here
here
here
here
here
here
here
here
here
here
here
here
here
here
here
here
here
here
here
here
here
here
here
here
here
here
here
here
here
here
here
here
here
here
here
here
here
here
here
here
here
here
here
here
here
here
here
here
here
here
here
here
here
here
here
here
here
here
here
here
here
here
here
here
here
here
here
here
here
here
here
here
here
here
here
here
here
here
here
here
here
here
here
here
here
here
here
here
here
here
here
here
here
here
here
here
here
here
here
here
here
here
here
here
here
here
here
here
here
here
here
here
here
here
here
here
here
here
here
here
here
here
here
here
here
here
here
here
here
here
here
here
here
here
here
here
here
here
here
here
here
here
here
here
here
here
here
here
here
here
here
here
here
here
here
here
here
here
here
here
here
here
here
here
here
here
here
here
here
here
here
here
here
here
here
here
here
here
here
here
here
here
here
here
here
here
here
here
here
here
here
here
here
here
here
here
here
here
here
here
here
here
here
here
here
here
here
here
here
here
here
here
here
here
here
here
here
here
here
here
here
here
here
here
here
here
here
here
here
here
here
here
here
here
here
here
here
here
here
here
here
here
here
here
here
here
here
here
here
here
here
here
here
here
here
here
here
here
here
here
here
here
here
here
here
here
here
here
here
here
here
here
here
here
here
here
here
here
here
here
here
here
here
here
here
here
here
here
here
here
here
here
here
here
here
here
here
here
here
here
here
here
here
here
here
here
here
here
here
here
here
here
here
here
here
here
here
here
here
here
here
here
here
here
here
here
here
here
here
here
here
here
here
here
here
here
here
here
here
here
here
here
here
here
here
here
here
here
here
here
here
here
here
here
here
here
here
here
here
here
here
here
here
here
here
here
here
here
here
here
here
here
here
here
here
here
here
here
here
here
here
here
here
here
here
here
here
here
here
here
here
here
here
here
here
here
here
here
here
here
here
here
here
here
here
here
here
here
here
here
here
here
here
here
here
here
here
here
here
here
here
here
here
here
here
here
here
here
here
here
here
here
here
here
here
here
here
here
here
here
here
here
here
here
here
here
here
here
here
here
here
here
here
here
here
here
here
here
here
here
here
here
here
here
here
here
here
here
here
here
here
here
here
here
here
here
here
here
here
here
here
here
here
here
here
here
here
here
here
here
here
here
here
here
here
here
here
here
here
here
here
here
here
here
here
here
here
here
here
here
here
here
here
here
here
here
here
here
here
here
here
here
here
here
here
here
here
here
here
here
here
here
here
here
here
here
here
here
here
here
here
here
here
here
here
here
here
here
here
here
here
here
here
here
here
here
here
here
here
here
here
here
here
here
here
here
here
here
here
here
here
here
here
here
here
here
here
here
here
here
here
here
here
here
here
here
here
here
here
here
here
here
here
here
here
here
here
here
here
here
here
here
here
here
here
here
here
here
here
here
here
here
here
here
here
here
here
here
here
here
here
here
here
here
here
here
here
here
here
here
here
here
here
here
here
here
here
here
here
here
here
here
here
here
here
here
here
here
here
here
here
here
here
here
here
here
here
here
here
here
here
here
here
here
here
here
here
here
here
here
here
here
here
here
here
here
here
here
here
here
here
here
here
here
here
here
here
here
here
here
here
here
here
here
here
here
here
here
here
here
here
here
here
here
here
here
here
here
here
here
here
here
here
here
here
here
here
here
here
here
here
here
here
here
here
here
here
here
here
here
here
here
here
here
here
here
here
here
here
here
here
here
here
here
here
here
here
here
here
here
here
here
here
here
here
here
here
here
here
here
here
here
here
here
here
here
here
here
here
here
here
here
here
here
here
here
here
here
here
here
here
here
here
here
here
here
here
here
here
here
here
here
here
here
here
here
here
here
here
here
here
here
here
here
here
here
here
here
here
here
here
here
here
here
here
here
here
here
here
here
here
here
here
here
here
here
here
here
here
here
here
here
here
here
here
here
here
here
here
here
here
here
here
here
here
here
here
here
here
here
here
here
here
here
here
here
here
here
here
here
here
here
here
here
here
here
here
here
here
here
here
here
here
here
here
here
here
here
here
here
here
here
here
here
here
here
here
here
here
here
here
here
here
here
here
here
here
here
here
here
here
here
here
here
here
here
here
here
here
here
here
here
here
here
here
here
here
here
here
here
here
here
here
here
here
here
here
here
here
here
here
here
here
here
here
here
here
here
here
here
here
here
here
here
here
here
here
here
here
here
here
here
here
here
here
here
here
here
here
here
here
here
here
here
here
here
here
here
here
here
here
here
here
here
here
here
here
here
here
here
here
here
here
here
here
here
here
here
here
here
here
here
here
here
here
here
here
here
here
here
here
here
here
here
here
here
here
here
here
here
here
here
here
here
here
here
here
here
here
here
here
here
here
here
here
here
here
here
here
here
here
here
here
here
here
here
here
here
here
here
here
here
here
here
here
here
here
here
here
here
here
here
here
here
here
here
here
here
here
here
here
here
here
here
here
here
here
here
here
here
here
here
here
here
here
here
here
here
here
here
here
here
here
here
here
here
here
here
here
here
here
here
here
here
here
here
here
here
here
here
here
here
here
here
here
here
here
here
here
here
here
here
here
here
here
here
here
here
here
here
here
here
here
here
here
here
here
here
here
here
here
here
here
here
here
here
here
here
here
here
here
here
here
here
here
here
here
here
here
here
here
here
here
here
here
here
here
here
here
here
here
here
here
here
here
here
here
here
here
here
here
here
here
here
here
here
here
here
here
here
here
here
here
here
here
here
here
here
here
here
here
here
here
here
here
here
here
here
here
here
here
here
here
here
here
here
here
here
here
here
here
here
here
here
here
here
here
here
here
here
here
here
here
here
here
here
here
here
here
here
here
here
here
here
here
here
here
here
here
here
here
here
here
here
here
here
here
here
here
here
here
here
here
here
here
here
here
here
here
here
here
here
here
here
here
here
here
here
here
here
here
here
here
here
here
here
here
here
here
here
here
here
here
here
here
here
here
here
here
here
here
here
here
here
here
here
here
here
here
here
here
here
here
here
here
here
here
here
here
here
here
here
here
here
here
here
here
here
here
here
here
here
here
here
here
here
here
here
here
here
here
here
here
here
here
here
here
here
here
here
here
here
here
here
here
here
here
here
here
here
here
here
here
here
here
here
here
here
here
here
here
here
here
here
here
here
here
here
here
here
here
here
here
here
here
here
here
here
here
here
here
here
here
here
here
here
here
here
here
here
here
here
here
here
here
here
here
here
here
here
here
here
here
here
here
here
here
here
here
here
here
here
here
here
here
here
here
here
here
here
here
here
here
here
here
here
here
here
here
here
here
here
here
here
here
here
here
here
here
here
here
here
here
here
here
here
here
here
here
here
here
here
here
here
here
here
here
here
here
here
here
here
here
here
here
here
here
here
here
here
here
here
here
here
here
here
here
here
here
here
here
here
here
here
here
here
here
here
here
here
here
here
here
here
here
here
here
here
here
here
here
here
here
here
here
here
here
here
here
here
here
here
here
here
here
here
here
here
here
here
here
here
here
here
here
here
here
here
here
here
here
here
here
here
here
here
here
here
here
here
here
here
here
here
here
here
here
here
here
here
here
here
here
here
here
here
here
here
here
here
here
here
here
here
here
here
here
here
here
here
here
here
here
here
here
here
here
here
here
here
here
here
here
here
here
here
here
here
here
here
here
here
here
here
here
here
here
here
here
here
here
here
here
here
here
here
here
here
here
here
here
here
here
here
here
here
here
here
here
here
here
here
here
here
here
here
here
here
here
here
here
here
here
here
here
here
here
here
here
here
here
here
here
here
here
here
here
here
here
here
here
here
here
here
here
here
here
here
here
here
here
here
here
here
here
here
here
here
here
here
here
here
here
here
here
here
here
here
here
here
here
here
here
here
here
here
here
here
here
here
here
here
here
here
here
here
here
here
here
here
here
here
here
here
here
here
here
here
here
here
here
here
here
here
here
here
here
here
here
here
here
here
here
here
here
here
here
here
here
here
here
here
here
here
here
here
here
here
here
here
here
here
here
here
here
here
here
here
here
here
here
here
here
here
here
here
here
here
here
here
here
here
here
here
here
here
here
here
here
here
here
here
here
here
here
here
here
here
here
here
here
here
here
here
here
here
here
here
here
here
here
here
here
here
here
here
here
here
here
here
here
here
here
here
here
here
here
here
here
here
here
here
here
here
here
here
here
here
here
here
here
here
here
here
here
here
here
here
here
here
here
here
here
here
here
here
here
here
here
here
here
here
here
here
here
here
here
here
here
here
here
here
here
here
here
here
here
here
here
here
here
here
here
here
here
here
here
here
here
here
here
here
here
here
here
here
here
here
here
here
here
here
here
here
here
here
here
here
here
here
here
here
here
here
here
here
here
here
here
here
here
here
here
here
here
here
here
here
here
here
here
here
here
here
here
here
here
here
here
here
here
here
here
here
here
here
here
here
here
here
here
here
here
here
here
here
here
here
here
here
here
here
here
here
here
here
here
here
here
here
here
here
here
here
here
here
here
here
here
here
here
here
here
here
here
here
here
here
here
here
here
here
here
here
here
here
here
here
here
here
here
here
here
here
here
here
here
here
here
here
here
here
here
here
here
here
here
here
here
here
here
here
here
here
here
here
here
here
here
here
here
here
here
here
here
here
here
here
here
here
here
here
here
here
here
here
here
here
here
here
here
here
here
here
here
here
here
here
here
here
here
here
here
here
here
here
here
here
here
here
here
here
here
here
here
here
here
here
here
here
here
here
here
here
here
here
here
here
here
here
here
here
here
here
here
here
here
here
here
here
here
here
here
here
here
here
here
here
here
here
here
here
here
here
here
here
here
here
here
here
here
here
here
here
here
here
here
here
here
here
here
here
here
here
here
here
here
here
here
here
here
here
here
here
here
here
here
here
here
here
here
here
here
here
here
here
here
here
here
here
here
here
here
here
here
here
here
here
here
here
here
here
here
here
here
here
here
here
here
here
here
here
here
here
here
here
here
here
here
here
here
here
here
here
here
here
here
here
here
here
here
here
here
here
here
here
here
here
here
here
here
here
here
here
here
here
here
here
here
here
here
here
here
here
here
here
here
here
here
here
here
here
here
here
here
here
here
here
here
here
here
here
here
here
here
here
here
here
here
here
here
here
here
here
here
here
here
here
here
here
here
here
here
here
here
here
here
here
here
here
here
here
here
here
here
here
here
here
here
here
here
here
here
here
here
here
here
here
here
here
here
here
here
here
here
here
here
here
here
here
here
here
here
here
here
here
here
here
here
here
here
here
here
here
here
here
here
here
here
here
here
here
here
here
here
here
here
here
here
here
here
here
here
here
here
here
here
here
here
here
here
here
here
here
here
here
here
here
here
here
here
here
here
here
here
here
here
here
here
here
here
here
here
here
here
here
here
here
here
here
here
here
here
here
here
here
here
here
here
here
here
here
here
here
here
here
here
here
here
here
here
here
here
here
here
here
here
here
here
here
here
here
here
here
here
here
here
here
here
here
here
here
here
here
here
here
here
here
here
here
here
here
here
here
here
here
here
here
here
here
here
here
here
here
here
here
here
here
here
here
here
here
here
here
here
here
here
here
here
here
here
here
here
here
here
here
here
here
here
here
here
here
here
here
here
here
here
here
here
here
here
here
here
here
here
here
here
here
here
here
here
here
here
here
here
here
here
here
here
here
here
here
here
here
here
here
here
here
here
here
here
here
here
here
here
here
here
here
here
here
here
here
here
here
here
here
here
here
here
here
here
here
here
here
here
here
here
here
here
here
here
here
here
here
here
here
here
here
here
here
here
here
here
here
here
here
here
here
here
here
here
here
here
here
here
here
here
here
here
here
here
here
here
here
here
here
here
here
here
here
here
here
here
here
here
here
here
here
here
here
here
here
here
here
here
here
here
here
here
here
here
here
here
here
here
here
here
here
here
here
here
here
here
here
here
here
here
here
here
here
here
here
here
here
here
here
here
here
here
here
here
here
here
here
here
here
here
here
here
here
here
here
here
here
here
here
here
here
here
here
here
here
here
here
here
here
here
here
here
here
here
here
here
here
here
here
here
here
here
here
here
here
here
here
here
here
here
here
here
here
here
here
here
here
here
here
here
here
here
here
here
here
here
here
here
here
here
here
here
here
here
here
here
here
here
here
here
here
here
here
here
here
here
here
here
here
here
here
here
here
here
here
here
here
here
here
here
here
here
here
here
here
here
here
here
here
here
here
here
here
here
here
here
here
here
here
here
here
here
here
here
here
here
here
here
here
here
here
here
here
here
here
here
here
here
here
here
here
here
here
here
here
here
here
here
here
here
here
here
here
here
here
here
here
here
here
here
here
here
here
here
here
here
here
here
here
here
here
here
here
here
here
here
here
here
here
here
here
here
here
here
here
here
here
here
here
here
here
here
here
here
here
here
here
here
here
here
here
here
here
here
here
here
here
here
here
here
here
here
here
here
here
here
here
here
here
here
here
here
here
here
here
here
here
here
here
here
here
here
here
here
here
here
here
here
here
here
here
here
here
here
here
here
here
here
here
here
here
here
here
here
here
here
here
here
here
here
here
here
here
here
here
here
here
here
here
here
here
here
here
here
here
here
here
here
here
here
here
here
here
here
here
here
here
here
here
here
here
here
here
here
here
here
here
here
here
here
here
here
here
here
here
here
here
here
here
here
here
here
here
here
here
here
here
here
here
here
here
here
here
here
here
here
here
here
here
here
here
here
here
here
here
here
here
here
here
here
here
here
here
here
here
here
here
here
here
here
here
here
here
here
here
here
here
here
here
here
here
here
here
here
here
here
here
here
here
here
here
here
here
here
here
here
here
here
here
here
here
here
here
here
here
here
here
here
here
here
here
here
here
here
here
here
here
here
here
here
here
here
here
here
here
here
here
here
here
here
here
here
here
here
here
here
here
here
here
here
here
here
here
here
here
here
here
here
here
here
here
here
here
here
here
here
here
here
here
here
here
here
here
here
here
here
here
here
here
here
here
here
here
here
here
here
here
here
here
here
here
here
here
here
here
here
here
here
here
here
here
here
here
here
here
here
here
here
here
here
here
here
here
here
here
here
here
here
here
here
here
here
here
here
here
here
here
here
here
here
here
here
here
here
here
here
here
here
here
here
here
here
here
here
here
here
here
here
here
here
here
here
here
here
here
here
here
here
here
here
here
here
here
here
here
here
here
here
here
here
here
here
here
here
here
here
here
here
here
here
here
here
here
here
here
here
here
here
here
here
here
here
here
here
here
here
here
here
here
here
here
here
here
here
here
here
here
here
here
here
here
here
here
here
here
here
here
here
here
here
here
here
here
here
here
here
here
here
here
here
here
here
here
here
here
here
here
here
here
here
here
here
here
here
here
here
here
here
here
here
here
here
here
here
here
here
here
here
here
here
here
here
here
here
here
here
here
here
here
here
here
here
here
here
here
here
here
here
here
here
here
here
here
here
here
here
here
here
here
here
here
here
here
here
here
here
here
here
here
here
here
here
here
here
here
here
here
here
here
here
here
here
here
here
here
here
here
here
here
here
here
here
here
here
here
here
here
here
here
here
here
here
here
here
here
here
here
here
here
here
here
here
here
here
here
here
here
here
here
here
here
here
here
here
here
here
here
here
here
here
here
here
here
here
here
here
here
here
here
here
here
here
here
here
here
here
here
here
here
here
here
here
here
here
here
here
here
here
here
here
here
here
here
here
here
here
here
here
here
here
here
here
here
here
here
here
here
here
here
here
here
here
here
here
here
here
here
here
here
here
here
here
here
here
here
here
here
here
here
here
here
here
here
here
here
here
here
here
here
here
here
here
here
here
here
here
here
here
here
here
here
here
here
here
here
here
here
here
here
here
here
here
here
here
here
here
here
here
here
here
here
here
here
here
here
here
here
here
here
here
here
here
here
here
here
here
here
here
here
here
here
here
here
here
here
here
here
here
here
here
here
here
here
here
here
here
here
here
here
here
here
here
here
here
here
here
here
here
here
here
here
here
here
here
here
here
here
here
here
here
here
here
here
here
here
here
here
here
here
here
here
here
here
here
here
here
here
here
here
here
here
here
here
here
here
here
here
here
here
here
here
here
here
here
here
here
here
here
here
here
here
here
here
here
here
here
here
here
here
here
here
here
here
here
here
here
here
here
here
here
here
here
here
here
here
here
here
here
here
here
here
here
here
here
here
here
here
here
here
here
here
here
here
here
here
here
here
here
here
here
here
here
here
here
here
here
here
here
here
here
here
here
here
here
here
here
here
here
here
here
here
here
here
here
here
here
here
here
here
here
here
here
here
here
here
here
here
here
here
here
here
here
here
here
here
here
here
here
here
here
here
here
here
here
here
here
here
here
here
here
here
here
here
here
here
here
here
here
here
here
here
here
here
here
here
here
here
here
here
here
here
here
here
here
here
here
here
here
here
here
here
here
here
here
here
here
here
here
here
here
here
here
here
here
here
here
here
here
here
here
here
here
here
here
here
here
here
here
here
here
here
here
here
here
here
here
here
here
here
here
here
here
here
here
here
here
here
here
here
here
here
here
here
here
here
here
here
here
here
here
here
here
here
here
here
here
here
here
here
here
here
here
here
here
here
here
here
here
here
here
here
here
here
here
here
here
here
here
here
here
here
here
here
here
here
here
here
here
here
here
here
here
here
here
here
here
here
here
here
here
here
here
here
here
here
here
here
here
here
here
here
here
here
here
here
here
here
here
here
here
here
here
here
here
here
here
here
here
here
here
here
here
here
here
here
here
here
here
here
here
here
here
here
here
here
here
here
here
here
here
here
here
here
here
here
here
here
here
here
here
here
here
here
here
here
here
here
here
here
here
here
here
here
here
here
here
here
here
here
here
here
here
here
here
here
here
here
here
here
here
here
here
here
here
here
here
here
here
here
here
here
here
here
here
here
here
here
here
here
here
here
here
here
here
here
here
here
here
here
here
here
here
here
here
here
here
here
here
here
here
here
here
here
here
here
here
here
here
here
here
here
here
here
here
here
here
here
here
here
here
here
here
here
here
here
here
here
here
here
here
here
here
here
here
here
here
here
here
here
here
here
here
here
here
here
here
here
here
here
here
here
here
here
here
here
here
here
here
here
here
here
here
here
here
here
here
here
here
here
here
here
here
here
here
here
here
here
here
here
here
here
here
here
here
here
here
here
here
here
here
here
here
here
here
here
here
here
here
here
here
here
here
here
here
here
here
here
here
here
here
here
here
here
here
here
here
here
here
here
here
here
here
here
here
here
here
here
here
here
here
here
here
here
here
here
here
here
here
here
here
here
here
here
here
here
here
here
here
here
here
here
here
here
here
here
here
here
here
here
here
here
here
here
here
here
here
here
here
here
here
here
here
here
here
here
here
here
here
here
here
here
here
here
here
here
here
here
here
here
here
here
here
here
here
here
here
here
here
here
here
here
here
here
here
here
here
here
here
here
here
here
here
here
here
here
here
here
here
here
here
here
here
here
here
here
here
here
here
here
here
here
here
here
here
here
here
here
here
here
here
here
here
here
here
here
here
here
here
here
here
here
here
here
here
here
here
here
here
here
here
here
here
here
here
here
here
here
here
here
here
here
here
here
here
here
here
here
here
here
here
here
here
here
here
here
here
here
here
here
here
here
here
here
here
here
here
here
here
here
here
here
here
here
here
here
here
here
here
here
here
here
here
here
here
here
here
here
here
here
here
here
here
here
here
here
here
here
here
here
here
here
here
here
here
here
here
here
here
here
here
here
here
here
here
here
here
here
here
here
here
here
here
here
here
here
here
here
here
here
here
here
here
here
here
here
here
here
here
here
here
here
here
here
here
here
here
here
here
here
here
here
here
here
here
here
here
here
here
here
here
here
here
here
here
here
here
here
here
here
here
here
here
here
here
here
here
here
here
here
here
here
here
here
here
here
here
here
here
here
here
here
here
here
here
here
here
here
here
here
here
here
here
here
here
here
here
here
here
here
here
here
here
here
here
here
here
here
here
here
here
here
here
here
here
here
here
here
here
here
here
here
here
here
here
here
here
here
here
here
here
here
here
here
here
here
here
here
here
here
here
here
here
here
here
here
here
here
here
here
here
here
here
here
here
here
here
here
here
here
here
here
here
here
here
here
here
here
here
here
here
here
here
here
here
here
here
here
here
here
here
here
here
here
here
here
here
here
here
here
here
here
here
here
here
here
here
here
here
here
here
here
here
here
here
here
here
here
here
here
here
here
here
here
here
here
here
here
here
here
here
here
here
here
here
here
here
here
here
here
here
here
here
here
here
here
here
here
here
here
here
here
here
here
here
here
here
here
here
here
here
here
here
here
here
here
here
here
here
here
here
here
here
here
here
here
here
here
here
here
here
here
here
here
here
here
here
here
here
here
here
here
here
here
here
here
here
here
here
here
here
here
here
here
here
here
here
here
here
here
here
here
here
here
here
here
here
here
here
here
here
here
here
here
here
here
here
here
here
here
here
here
here
here
here
here
here
here
here
here
here
here
here
here
here
here
here
here
here
here
here
here
here
here
here
here
here
here
here
here
here
here
here
here
here
here
here
here
here
here
here
here
here
here
here
here
here
here
here
here
here
here
here
here
here
here
here
here
here
here
here
here
here
here
here
here
here
here
here
here
here
here
here
here
here
here
here
here
here
here
here
here
here
here
here
here
here
here
here
here
here
here
here
here
here
here
here
here
here
here
here
here
here
here
here
here
here
here
here
here
here
here
here
here
here
here
here
here
here
here
here
here
here
here
here
here
here
here
here
here
here
here
here
here
here
here
here
here
here
here
here
here
here
here
here
here
here
here
here
here
here
here
here
here
here
here
here
here
here
here
here
here
here
here
here
here
here
here
here
here
here
here
here
here
here
here
here
here
here
here
here
here
here
here
here
here
here
here
here
here
here
here
here
here
here
here
here
here
here
here
here
here
here
here
here
here
here
here
here
here
here
here
here
here
here
here
here
here
here
here
here
here
here
here
here
here
here
here
here
here
here
here
here
here
here
here
here
here
here
here
here
here
here
here
here
here
here
here
here
here
here
here
here
here
here
here
here
here
here
here
here
here
here
here
here
here
here
here
here
here
here
here
here
here
here
here
here
here
here
here
here
here
here
here
here
here
here
here
here
here
here
here
here
here
here
here
here
here
here
here
here
here
here
here
here
here
here
here
here
here
here
here
here
here
here
here
here
here
here
here
here
here
here
here
here
here
here
here
here
here
here
here
here
here
here
here
here
here
here
here
here
here
here
here
here
here
here
here
here
here
here
here
here
here
here
here
here
here
here
here
here
here
here
here
here
here
here
here
here
here
here
here
here
here
here
here
here
here
here
here
here
here
here
here
here
here
here
here
here
here
here
here
here
here
here
here
here
here
here
here
here
here
here
here
here
here
here
here
here
here
here
here
here
here
here
here
here
here
here
here
here
here
here
here
here
here
here
here
here
here
here
here
here
here
here
here
here
here
here
here
here
here
here
here
here
here
here
here
here
here
here
here
here
here
here
here
here
here
here
here
here
here
here
here
here
here
here
here
here
here
here
here
here
here
here
here
here
here
here
here
here
here
here
here
here
here
here
here
here
here
here
here
here
here
here
here
here
here
here
here
here
here
here
here
here
here
here
here
here
here
here
here
here
here
here
here
here
here
here
here
here
here
here
here
here
here
here
here
here
here
here
here
here
here
here
here
here
here
here
here
here
here
here
here
here
here
here
here
here
here
here
here
here
here
here
here
here
here
here
here
here
here
here
here
here
here
here
here
here
here
here
here
here
here
here
here
here
here
here
here
here
here
here
here
here
here
here
here
here
here
here
here
here
here
here
here
here
here
here
here
here
here
here
here
here
here
here
here
here
here
here
here
here
here
here
here
here
here
here
here
here
here
here
here
here
here
here
here
here
here
here
here
here
here
here
here
here
here
here
here
here
here
here
here
here
here
here
here
here
here
here
here
here
here
here
here
here
here
here
here
here
here
here
here
here
here
here
here
here
here
here
here
here
here
here
here
here
here
here
here
here
here
here
here
here
here
here
here
here
here
here
here
here
here
here
here
here
here
here
here
here
here
here
here
here
here
here
here
here
here
here
here
here
here
here
here
here
here
here
here
here
here
here
here
here
here
here
here
here
here
here
here
here
here
here
here
here
here
here
here
here
here
here
here
here
here
here
here
here
here
here
here
here
here
here
here
here
here
here
here
here
here
here
here
here
here
here
here
here
here
here
here
here
here
here
here
here
here
here
here
here
here
here
here
here
here
here
here
here
here
here
here
here
here
here
here
here
here
here
here
here
here
here
here
here
here
here
here
here
here
here
here
here
here
here
here
here
here
here
here
here
here
here
here
here
here
here
here
here
here
here
here
here
here
here
here
here
here
here
here
here
here
here
here
here
here
here
here
here
here
here
here
here
here
here
here
here
here
here
here
here
here
here
here
here
here
here
here
here
here
here
here
here
here
here
here
here
here
here
here
here
here
here
here
here
here
here
here
here
here
here
here
here
here
here
here
here
here
here
here
here
here
here
here
here
here
here
here
here
here
here
here
here
here
here
here
here
here
here
here
here
here
here
here
here
here
here
here
here
here
here
here
here
here
here
here
here
here
here
here
here
here
here
here
here
here
here
here
here
here
here
here
here
here
here
here
here
here
here
here
here
here
here
here
here
here
here
here
here
here
here
here
here
here
here
here
here
here
here
here
here
here
here
here
here
here
here
here
here
here
here
here
here
here
here
here
here
here
here
here
here
here
here
here
here
here
here
here
here
here
here
here
here
here
here
here
here
here
here
here
here
here
here
here
here
here
here
here
here
here
here
here
here
here
here
here
here
here
here
here
here
here
here
here
here
here
here
here
here
here
here
here
here
here
here
here
here
here
here
here
here
here
here
here
here
here
here
here
here
here
here
here
here
here
here
here
here
here
here
here
here
here
here
here
here
here
here
here
here
here
here
here
here
here
here
here
here
here
here
here
here
here
here
here
here
here
here
here
here
here
here
here
here
here
here
here
here
here
here
here
here
here
here
here
here
here
here
here
here
here
here
here
here
here
here
here
here
here
here
here
here
here
here
here
here
here
here
here
here
here
here
here
here
here
here
here
here
here
here
here
here
here
here
here
here
here
here
here
here
here
here
here
here
here
here
here
here
here
here
here
here
here
here
here
here
here
here
here
here
here
here
here
here
here
here
here
here
here
here
here
here
here
here
here
here
here
here
here
here
here
here
here
here
here
here
here
here
here
here
here
here
here
here
here
here
here
here
here
here
here
here
here
here
here
here
here
here
here
here
here
here
here
here
here
here
here
here
here
here
here
here
here
here
here
here
here
here
here
here
here
here
here
here
here
here
here
here
here
here
here
here
here
here
here
here
here
here
here
here
here
here
here
here
here
here
here
here
here
here
here
here
here
here
here
here
here
here
here
here
here
here
here
here
here
here
here
here
here
here
here
here
here
here
here
here
here
here
here
here
here
here
here
here
here
here
here
here
here
here
here
here
here
here
here
here
here
here
here
here
here
here
here
here
here
here
here
here
here
here
here
here
here
here
here
here
here
here
here
here
here
here
here
here
here
here
here
here
here
here
here
here
here
here
here
here
here
here
here
here
here
here
here
here
here
here
here
here
here
here
here
here
here
here
here
here
here
here
here
here
here
here
here
here
here
here
here
here
here
here
here
here
here
here
here
here
here
here
here
here
here
here
here
here
here
here
here
here
here
here
here
here
here
here
here
here
here
here
here
here
here
here
here
here
here
here
here
here
here
here
here
here
here
here
here
here
here
here
here
here
here
here
here
here
here
here
here
here
here
here
here
here
here
here
here
here
here
here
here
here
here
here
here
here
here
here
here
here
here
here
here
here
here
here
here
here
here
here
here
here
here
here
here
here
here
here
here
here
here
here
here
here
here
here
here
here
here
here
here
here
here
here
here
here
here
here
here
here
here
here
here
here
here
here
here
here
here
here
here
here
here
here
here
here
here
here
here
here
here
here
here
here
here
here
here
here
here
here
here
here
here
here
here
here
here
here
here
here
here
here
here
here
here
here
here
here
here
here
here
here
here
here
here
here
here
here
here
here
here
here
here
here
here
here
here
here
here
here
here
here
here
here
here
here
here
here
here
here
here
here
here
here
here
here
here
here
here
here
here
here
here
here
here
here
here
here
here
here
here
here
here
here
here
here
here
here
here
here
here
here
here
here
here
here
here
here
here
here
here
here
here
here
here
here
here
here
here
here
here
here
here
here
here
here
here
here
here
here
here
here
here
here
here
here
here
here
here
here
here
here
here
here
here
here
here
here
here
here
here
here
here
here
here
here
here
here
here
here
here
here
here
here
here
here
here
here
here
here
here
here
here
here
here
here
here
here
here
here
here
here
here
here
here
here
here
here
here
here
here
here
here
here
here
here
here
here
here
here
here
here
here
here
here
here
here
here
here
here
here
here
here
here
here
here
here
here
here
here
here
here
here
here
here
here
here
here
here
here
here
here
here
here
here
here
here
here
here
here
here
here
here
here
here
here
here
here
here
here
here
here
here
here
here
here
here
here
here
here
here
here
here
here
here
here
here
here
here
here
here
here
here
here
here
here
here
here
here
here
here
here
here
here
here
here
here
here
here
here
here
here
here
here
here
here
here
here
here
here
here
here
here
here
here
here
here
here
here
here
here
here
here
here
here
here
here
here
here
here
here
here
here
here
here
here
here
here
here
here
here
here
here
here
here
here
here
here
here
here
here
here
here
here
here
here
here
here
here
here
here
here
here
here
here
here
here
here
here
here
here
here
here
here
here
here
here
here
here
here
here
here
here
here
here
here
here
here
here
here
here
here
here
here
here
here
here
here
here
here
here
here
here
here
here
here
here
here
here
here
here
here
here
here
here
here
here
here
here
here
here
here
here
here
here
here
here
here
here
here
here
here
here
here
here
here
here
here
here
here
here
here
here
here
here
here
here
here
here
here
here
here
here
here
here
here
here
here
here
here
here
here
here
here
here
here
here
here
here
here
here
here
here
here
here
here
here
here
here
here
here
here
here
here
here
here
here
here
here
here
here
here
here
here
here
here
here
here
here
here
here
here
here
here
here
here
here
here
here
here
here
here
here
here
here
here
here
here
here
here
here
here
here
here
here
here
here
here
here
here
here
here
here
here
here
here
here
here
here
here
here
here
here
here
here
here
here
here
here
here
here
here
here
here
here
here
here
here
here
here
here
here
here
here
here
here
here
here
here
here
here
here
here
here
here
here
here
here
here
here
here
here
here
here
here
here
here
here
here
here
here
here
here
here
here
here
here
here
here
here
here
here
here
here
here
here
here
here
here
here
here
here
here
here
here
here
here
here
here
here
here
here
here
here
here
here
here
here
here
here
here
here
here
here
here
here
here
here
here
here
here
here
here
here
here
here
here
here
here
here
here
here
here
here
here
here
here
here
here
here
here
here
here
here
here
here
here
here
here
here
here
here
here
here
here
here
here
here
here
here
here
here
here
here
here
here
here
here
here
here
here
here
here
here
here
here
here
here
here
here
here
here
here
here
here
here
here
here
here
here
here
here
here
here
here
here
here
here
here
here
here
here
here
here
here
here
here
here
here
here
here
here
here
here
here
here
here
here
here
here
here
here
here
here
here
here
here
here
here
here
here
here
here
here
here
here
here
here
here
here
here
here
here
here
here
here
here
here
here
here
here
here
here
here
here
here
here
here
here
here
here
here
here
here
here
here
here
here
here
here
here
here
here
here
here
here
here
here
here
here
here
here
here
here
here
here
here
here
here
here
here
here
here
here
here
here
here
here
here
here
here
here
here
here
here
here
here
here
here
here
here
here
here
here
here
here
here
here
here
here
here
here
here
here
here
here
here
here
here
here
here
here
here
here
here
here
here
here
here
here
here
here
here
here
here
here
here
here
here
here
here
here
here
here
here
here
here
here
here
here
here
here
here
here
here
here
here
here
here
here
here
here
here
here
here
here
here
here
here
here
here
here
here
here
here
here
here
here
here
here
here
here
here
here
here
here
here
here
here
here
here
here
here
here
here
here
here
here
here
here
here
here
here
here
here
here
here
here
here
here
here
here
here
here
here
here
here
here
here
here
here
here
here
here
here
here
here
here
here
here
here
here
here
here
here
here
here
here
here
here
here
here
here
here
here
here
here
here
here
here
here
here
here
here
here
here
here
here
here
here
here
here
here
here
here
here
here
here
here
here
here
here
here
here
here
here
here
here
here
here
here
here
here
here
here
here
here
here
here
here
here
here
here
here
here
here
here
here
here
here
here
here
here
here
here
here
here
here
here
here
here
here
here
here
here
here
here
here
here
here
here
here
here
here
here
here
here
here
here
here
here
here
here
here
here
here
here
here
here
here
here
here
here
here
here
here
here
here
here
here
here
here
here
here
here
here
here
here
here
here
here
here
here
here
here
here
here
here
here
here
here
here
here
here
here
here
here
here
here
here
here
here
here
here
here
here
here
here
here
here
here
here
here
here
here
here
here
here
here
here
here
here
here
here
here
here
here
here
here
here
here
here
here
here
here
here
here
here
here
here
here
here
here
here
here
here
here
here
here
here
here
here
here
here
here
here
here
here
here
here
here
here
here
here
here
here
here
here
here
here
here
here
here
here
here
here
here
here
here
here
here
here
here
here
here
here
here
here
here
here
here
here
here
here
here
here
here
here
here
here
here
here
here
here
here
here
here
here
here
here
here
here
here
here
here
here
here
here
here
here
here
here
here
here
here
here
here
here
here
here
here
here
here
here
here
here
here
here
here
here
here
here
here
here
here
here
here
here
here
here
here
here
here
here
here
here
here
here
here
here
here
here
here
here
here
here
here
here
here
here
here
here
here
here
here
here
here
here
here
here
here
here
here
here
here
here
here
here
here
here
here
here
here
here
here
here
here
here
here
here
here
here
here
here
here
here
here
here
here
here
here
here
here
here
here
here
here
here
here
here
here
here
here
here
here
here
here
here
here
here
here
here
here
here
here
here
here
here
here
here
here
here
here
here
here
here
here
here
here
here
here
here
here
here
here
here
here
here
here
here
here
here
here
here
here
here
here
here
here
here
here
here
here
here
here
here
here
here
here
here
here
here
here
here
here
here
here
here
here
here
here
here
here
here
here
here
here
here
here
here
here
here
here
here
here
here
here
here
here
here
here
here
here
here
here
here
here
here
here
here
here
here
here
here
here
here
here
here
here
here
here
here
here
here
here
here
here
here
here
here
here
here
here
here
here
here
here
here
here
here
here
here
here
here
here
here
here
here
here
here
here
here
here
here
here
here
here
here
here
here
here
here
here
here
here
here
here
here
here
here
here
here
here
here
here
here
here
here
here
here
here
here
here
here
here
here
here
here
here
here
here
here
here
here
here
here
here
here
here
here
here
here
here
here
here
here
here
here
here
here
here
here
here
here
here
here
here
here
here
here
here
here
here
here
here
here
here
here
here
here
here
here
here
here
here
here
here
here
here
here
here
here
here
here
here
here
here
here
here
here
here
here
here
here
here
here
here
here
here
here
here
here
here
here
here
here
here
here
here
here
here
here
here
here
here
here
here
here
here
here
here
here
here
here
here
here
here
here
here
here
here
here
here
here
here
here
here
here
here
here
here
here
here
here
here
here
here
here
here
here
here
here
here
here
here
here
here
here
here
here
here
here
here
here
here
here
here
here
here
here
here
here
here
here
here
here
here
here
here
here
here
here
here
here
here
here
here
here
here
here
here
here
here
here
here
here
here
here
here
here
here
here
here
here
here
here
here
here
here
here
here
here
here
here
here
here
here
here
here
here
here
here
here
here
here
here
here
here
here
here
here
here
here
here
here
here
here
here
here
here
here
here
here
here
here
here
here
here
here
here
here
here
here
here
here
here
here
here
here
here
here
here
here
here
here
here
here
here
here
here
here
here
here
here
here
here
here
here
here
here
here
here
here
here
here
here
here
here
here
here
here
here
here
here
here
here
here
here
here
here
here
here
here
here
here
here
here
here
here
here
here
here
here
here
here
here
here
here
here
here
here
here
here
here
here
here
here
here
here
here
here
here
here
here
here
here
here
here
here
here
here
here
here
here
here
here
here
here
here
here
here
here
here
here
here
here
here
here
here
here
here
here
here
here
here
here
here
here
here
here
here
here
here
here
here
here
here
here
here
here
here
here
here
here
here
here
here
here
here
here
here
here
here
here
here
here
here
here
here
here
here
here
here
here
here
here
here
here
here
here
here
here
here
here
here
here
here
here
here
here
here
here
here
here
here
here
here
here
here
here
here
here
here
here
here
here
here
here
here
here
here
here
here
here
here
here
here
here
here
here
here
here
here
here
here
here
here
here
here
here
here
here
here
here
here
here
here
here
here
here
here
here
here
here
here
here
here
here
here
here
here
here
here
here
here
here
here
here
here
here
here
here
here
here
here
here
here
here
here
here
here
here
here
here
here
here
here
here
here
here
here
here
here
here
here
here
here
here
here
here
here
here
here
here
here
here
here
here
here
here
here
here
here
here
here
here
here
here
here
here
here
here
here
here
here
here
here
here
here
here
here
here
here
here
here
here
here
here
here
here
here
here
here
here
here
here
here
here
here
here
here
here
here
here
here
here
here
here
here
here
here
here
here
here
here
here
here
here
here
here
here
here
here
here
here
here
here
here
here
here
here
here
here
here
here
here
here
here
here
here
here
here
here
here
here
here
here
here
here
here
here
here
here
here
here
here
here
here
here
here
here
here
here
here
here
here
here
here
here
here
here
here
here
here
here
here
here
here
here
here
here
here
here
here
here
here
here
here
here
here
here
here
here
here
here
here
here
here
here
here
here
here
here
here
here
here
here
here
here
here
here
here
here
here
here
here
here
here
here
here
here
here
here
here
here
here
here
here
here
here
here
here
here
here
here
here
here
here
here
here
here
here
here
here
here
here
here
here
here
here
here
here
here
here
here
here
here
here
here
here
here
here
here
here
here
here
here
here
here
here
here
here
here
here
here
here
here
here
here
here
here
here
here
here
here
here
here
here
here
here
here
here
here
here
here
here
here
here
here
here
here
here
here
here
here
here
here
here
here
here
here
here
here
here
here
here
here
here
here
here
here
here
here
here
here
here
here
here
here
here
here
here
here
here
here
here
here
here
here
here
here
here
here
here
here
here
here
here
here
here
here
here
here
here
here
here
here
here
here
here
here
here
here
here
here
here
here
here
here
here
here
here
here
here
here
here
here
here
here
here
here
here
here
here
here
here
here
here
here
here
here
here
here
here
here
here
here
here
here
here
here
here
here
here
here
here
here
here
here
here
here
here
here
here
here
here
here
here
here
here
here
here
here
here
here
here
here
here
here
here
here
here
here
here
here
here
here
here
here
here
here
here
here
here
here
here
here
here
here
here
here
here
here
here
here
here
here
here
here
here
here
here
here
here
here
here
here
here
here
here
here
here
here
here
here
here
here
here
here
here
here
here
here
here
here
here
here
here
here
here
here
here
here
here
here
here
here
here
here
here
here
here
here
here
here
here
here
here
here
here
here
here
here
here
here
here
here
here
here
here
here
here
here
here
here
here
here
here
here
here
here
here
here
here
here
here
here
here
here
here
here
here
here
here
here
here
here
here
here
here
here
here
here
here
here
here
here
here
here
here
here
here
here
here
here
here
here
here
here
here
here
here
here
here
here
here
here
here
here
here
here
here
here
here
here
here
here
here
here
here
here
here
here
here
here
here
here
here
here
here
here
here
here
here
here
here
here
here
here
here
here
here
here
here
here
here
here
here
here
here
here
here
here
here
here
here
here
here
here
here
here
here
here
here
here
here
here
here
here
here
here
here
here
here
here
here
here
here
here
here
here
here
here
here
here
here
here
here
here
here
here
here
here
here
here
here
here
here
here
here
here
here
here
here
here
here
here
here
here
here
here
here
here
here
here
here
here
here
here
here
here
here
here
here
here
here
here
here
here
here
here
here
here
here
here
here
here
here
here
here
here
here
here
here
here
here
here
here
here
here
here
here
here
here
here
here
here
here
here
here
here
here
here
here
here
here
here
here
here
here
here
here
here
here
here
here
here
here
here
here
here
here
here
here
here
here
here
here
here
here
here
here
here
here
here
here
here
here
here
here
here
here
here
here
here
here
here
here
here
here
here
here
here
here
here
here
here
here
here
here
here
here
here
here
here
here
here
here
here
here
here
here
here
here
here
here
here
here
here
here
here
here
here
here
here
here
here
here
here
here
here
here
here
here
here
here
here
here
here
here
here
here
here
here
here
here
here
here
here
here
here
here
here
here
here
here
here
here
here
here
here
here
here
here
here
here
here
here
here
here
here
here
here
here
here
here
here
here
here
here
here
here
here
here
here
here
here
here
here
here
here
here
here
here
here
here
here
here
here
here
here
here
here
here
here
here
here
here
here
here
here
here
here
here
here
here
here
here
here
here
here
here
here
here
here
here
here
here
here
here
here
here
here
here
here
here
here
here
here
here
here
here
here
here
here
here
here
here
here
here
here
here
here
here
here
here
here
here
here
here
here
here
here
here
here
here
here
here
here
here
here
here
here
here
here
here
here
here
here
here
here
here
here
here
here
here
here
here
here
here
here
here
here
here
here
here
here
here
here
here
here
here
here
here
here
here
here
here
here
here
here
here
here
here
here
here
here
here
here
here
here
here
here
here
here
here
here
here
here
here
here
here
here
here
here
here
here
here
here
here
here
here
here
here
here
here
here
here
here
here
here
here
here
here
here
here
here
here
here
here
here
here
here
here
here
here
here
here
here
here
here
here
here
here
here
here
here
here
here
here
here
here
here
here
here
here
here
here
here
here
here
here
here
here
here
here
here
here
here
here
here
here
here
here
here
here
here
here
here
here
here
here
here
here
here
here
here
here
here
here
here
here
here
here
here
here
here
here
here
here
here
here
here
here
here
here
here
here
here
here
here
here
here
here
here
here
here
here
here
here
here
here
here
here
here
here
here
here
here
here
here
here
here
here
here
here
here
here
here
here
here
here
here
here
here
here
here
here
here
here
here
here
here
here
here
here
here
here
here
here
here
here
here
here
here
here
here
here
here
here
here
here
here
here
here
here
here
here
here
here
here
here
here
here
here
here
here
here
here
here
here
here
here
here
here
here
here
here
here
here
here
here
here
here
here
here
here
here
here
here
here
here
here
here
here
here
here
here
here
here
here
here
here
here
here
here
here
here
here
here
here
here
here
here
here
here
here
here
here
here
here
here
here
here
here
here
here
here
here
here
here
here
here
here
here
here
here
here
here
here
here
here
here
here
here
here
here
here
here
here
here
here
here
here
here
here
here
here
here
here
here
here
here
here
here
here
here
here
here
here
here
here
here
here
here
here
here
here
here
here
here
here
here
here
here
here
here
here
here
here
here
here
here
here
here
here
here
here
here
here
here
here
here
here
here
here
here
here
here
here
here
here
here
here
here
here
here
here
here
here
here
here
here
here
here
here
here
here
here
here
here
here
here
here
here
here
here
here
here
here
here
here
here
here
here
here
here
here
here
here
here
here
here
here
here
here
here
here
here
here
here
here
here
here
here
here
here
here
here
here
here
here
here
here
here
here
here
here
here
here
here
here
here
here
here
here
here
here
here
here
here
here
here
here
here
here
here
here
here
here
here
here
here
here
here
here
here
here
here
here
here
here
here
here
here
here
here
here
here
here
here
here
here
here
here
here
here
here
here
here
here
here
here
here
here
here
here
here
here
here
here
here
here
here
here
here
here
here
here
here
here
here
here
here
here
here
here
here
here
here
here
here
here
here
here
here
here
here
here
here
here
here
here
here
here
here
here
here
here
here
here
here
here
here
here
here
here
here
here
here
here
here
here
here
here
here
here
here
here
here
here
here
here
here
here
here
here
here
here
here
here
here
here
here
here
here
here
here
here
here
here
here
here
here
here
here
here
here
here
here
here
here
here
here
here
here
here
here
here
here
here
here
here
here
here
here
here
here
here
here
here
here
here
here
here
here
here
here
here
here
here
here
here
here
here
here
here
here
here
here
here
here
here
here
here
here
here
here
here
here
here
here
here
here
here
here
here
here
here
here
here
here
here
here
here
here
here
here
here
here
here
here
here
here
here
here
here
here
here
here
here
here
here
here
here
here
here
here
here
here
here
here
here
here
here
here
here
here
here
here
here
here
here
here
here
here
here
here
here
here
here
here
here
here
here
here
here
here
here
here
here
here
here
here
here
here
here
here
here
here
here
here
here
here
here
here
here
here
here
here
here
here
here
here
here
here
here
here
here
here
here
here
here
here
here
here
here
here
here
here
here
here
here
here
here
here
here
here
here
here
here
here
here
here
here
here
here
here
here
here
here
here
here
here
here
here
here
here
here
here
here
here
here
here
here
here
here
here
here
here
here
here
here
here
here
here
here
here
here
here
here
here
here
here
here
here
here
here
here
here
here
here
here
here
here
here
here
here
here
here
here
here
here
here
here
here
here
here
here
here
here
here
here
here
here
here
here
here
here
here
here
here
here
here
here
here
here
here
here
here
here
here
here
here
here
here
here
here
here
here
here
here
here
here
here
here
here
here
here
here
here
here
here
here
here
here
here
here
here
here
here
here
here
here
here
here
here
here
here
here
here
here
here
here
here
here
here
here
here
here
here
here
here
here
here
here
here
here
here
here
here
here
here
here
here
here
here
here
here
here
here
here
here
here
here
here
here
here
here
here
here
here
here
here
here
here
here
here
here
here
here
here
here
here
here
here
here
here
here
here
here
here
here
here
here
here
here
here
here
here
here
here
here
here
here
here
here
here
here
here
here
here
here
here
here
here
here
here
here
here
here
here
here
here
here
here
here
here
here
here
here
here
here
here
here
here
here
here
here
here
here
here
here
here
here
here
here
here
here
here
here
here
here
here
here
here
here
here
here
here
here
here
here
here
here
here
here
here
here
here
here
here
here
here
here
here
here
here
here
here
here
here
here
here
here
here
here
here
here
here
here
here
here
here
here
here
here
here
here
here
here
here
here
here
here
here
here
here
here
here
here
here
here
here
here
here
here
here
here
here
here
here
here
here
here
here
here
here
here
here
here
here
here
here
here
here
here
here
here
here
here
here
here
here
here
here
here
here
here
here
here
here
here
here
here
here
here
here
here
here
here
here
here
here
here
here
here
here
here
here
here
here
here
here
here
here
here
here
here
here
here
here
here
here
here
[...]
here
here
here
here
here
here
here
here
here
here
here
here
here
here
here
here
here
here
here
here
here
here
here
here
here
here
here
here
here
here
here
here
here
here
here
here
here
here
here
here
here
here
here
here
here
here
here
here
here
here
here
here
here
here
here
here
here
here
here
here
here
here
here
here
here
here
here
here
here
here
here
here
here
here
here
here
here
here
here
here
here
here
here
here
here
here
here
here
here
here
here
here
here
here
here
here
here
here
here
here
here
here
here
here
here
here
here
here
here
here
here
here
here
here
here
here
here
here
here
here
here
here
here
here
here
here
here
here
here
here
here
here
here
here
here
here
here
here
here
here
here
here
here
here
here
here
here
here
here
here
here
here
here
here
here
here
here
here
here
here
here
here
here
here
here
here
here
here
here
here
here
here
here
here
here
here
here
here
here
here
here
here
here
here
here
here
here
here
here
here
here
here
here
here
here
here
here
here
here
here
here
here
here
here
here
here
here
here
here
here
here
here
here
here
here
here
here
here
here
here
here
here
here
here
here
here
here
here
here
here
here
here
here
here
here
here
here
here
here
here
here
here
here
here
here
here
here
here
here
here
here
here
here
here
here
here
here
here
here
here
here
here
here
here
here
here
here
here
here
here
here
here
here
here
here
here
here
here
here
here
here
here
here
here
here
here
here
here
here
here
here
here
here
here
here
here
here
here
here
here
here
here
here
here
here
here
here
here
here
here
here
here
here
here
here
here
here
here
here
here
here
here
here
here
here
here
here
here
here
here
here
here
here
here
here
here
here
here
here
here
here
here
here
here
here
here
here
here
here
here
here
here
here
here
here
here
here
here
here
here
here
here
here
here
here
here
here
here
here
here
here
here
here
here
here
here
here
here
here
here
here
here
here
here
here
here
here
here
here
here
here
here
here
here
here
here
here
here
here
here
here
here
here
here
here
here
here
here
here
here
here
here
here
here
here
here
here
here
here
here
here
here
here
here
here
here
here
here
here
here
here
here
here
here
here
here
here
here
here
here
here
here
here
here
here
here
here
here
here
here
here
here
here
here
here
here
here
here
here
here
here
here
here
here
here
here
here
here
here
here
here
here
here
here
here
here
here
here
here
here
here
here
here
here
here
here
here
here
here
here
here
here
here
here
here
here
here
here
here
here
here
here
here
here
here
here
here
here
here
here
here
here
here
here
here
here
here
here
here
here
here
here
here
here
here
here
here
here
here
here
here
here
here
here
here
here
here
here
here
here
here
here
here
here
here
here
here
here
here
here
here
here
here
here
here
here
here
here
here
here
here
here
here
here
here
here
here
here
here
here
here
here
here
here
here
here
here
here
here
here
here
here
here
here
here
here
here
here
here
here
here
here
here
here
here
here
here
here
here
here
here
here
here
here
here
here
here
here
here
here
here
here
here
here
here
here
here
here
here
here
here
here
here
here
here
here
here
here
here
here
here
here
here
here
here
here
here
here
here
here
here
here
here
here
here
here
here
here
here
here
here
here
here
here
here
here
here
here
here
here
here
here
here
here
here
here
here
here
here
here
here
here
here
here
here
here
here
here
here
here
here
here
here
here
here
here
here
here
here
here
here
here
here
here
here
here
here
here
here
here
here
here
here
here
here
here
here
here
here
here
here
here
here
here
here
here
here
here
here
here
here
here
here
here
here
here
here
here
here
here
here
here
here
here
here
here
here
here
here
here
here
here
here
here
here
here
here
here
here
here
here
here
here
here
here
here
here
here
here
here
here
here
here
here
here
here
here
here
here
here
here
here
here
here
here
here
here
here
here
here
here
here
here
here
here
here
here
here
here
here
here
here
here
here
here
here
here
here
here
here
here
here
here
here
here
here
here
here
here
here
here
here
here
here
here
here
here
here
here
here
here
here
here
here
here
here
here
here
here
here
here
here
here
here
here
here
here
here
here
here
here
here
here
here
here
here
here
here
here
here
here
here
here
here
here
here
here
here
here
here
here
here
here
here
here
here
here
here
here
here
here
here
here
here
here
here
here
here
here
here
here
here
here
here
here
here
here
here
here
here
here
here
here
here
here
here
here
here
here
here
here
here
here
here
here
here
here
here
here
here
here
here
here
here
here
here
here
here
here
here
here
here
here
here
here
here
here
here
here
here
here
here
here
here
here
here
here
here
here
here
here
here
here
here
here
here
here
here
here
here
here
here
here
here
here
here
here
here
here
here
here
here
here
here
here
here
here
here
here
here
here
here
here
here
here
here
here
here
here
here
here
here
here
here
here
here
here
here
here
here
here
here
here
here
here
here
here
here
here
here
here
here
here
here
here
here
here
here
here
here
here
here
here
here
here
here
here
here
here
here
here
here
here
here
here
here
here
here
here
here
here
here
here
here
here
here
here
here
here
here
here
here
here
here
here
here
here
here
here
here
here
here
here
here
here
here
here
here
here
here
here
here
here
here
here
here
here
here
here
here
here
here
here
here
here
here
here
here
here
here
here
here
here
here
here
here
here
here
here
here
here
here
here
here
here
here
here
here
here
here
here
here
here
here
here
here
here
here
here
here
here
here
here
here
here
here
here
here
here
here
here
here
here
here
here
here
here
here
here
here
here
here
here
here
here
here
here
here
here
here
here
here
here
here
here
here
here
here
here
here
here
here
here
here
here
here
here
here
here
here
here
here
here
here
here
here
here
here
here
here
here
here
here
here
here
here
here
here
here
here
here
here
here
here
here
here
here
here
here
here
here
here
here
here
here
here
here
here
here
here
here
here
here
here
here
here
here
here
here
here
here
here
here
here
here
here
here
here
here
here
here
here
here
here
here
here
here
here
here
here
here
here
here
here
here
here
here
here
here
here
here
here
here
here
here
here
here
here
here
here
here
here
here
here
here
here
here
here
here
here
here
here
here
here
here
here
here
here
here
here
here
here
here
here
here
here
here
here
here
here
here
here
here
here
here
here
here
here
here
here
here
here
here
here
here
here
here
here
here
here
here
here
here
here
here
here
here
here
here
here
here
here
here
here
here
here
here
here
here
here
here
here
here
here
here
here
here
here
here
here
here
here
here
here
here
here
here
here
here
here
here
here
here
here
here
here
here
here
here
here
here
here
here
here
here
here
here
here
here
here
here
here
here
here
here
here
here
here
here
here
here
here
here
here
here
here
here
here
here
here
here
here
here
here
here
here
here
here
here
here
here
here
here
here
here
here
here
here
here
here
here
here
here
here
here
here
here
here
here
here
here
here
here
here
here
here
here
here
here
here
here
here
here
here
here
here
here
here
here
here
here
here
here
here
here
here
here
here
here
here
here
here
here
here
here
here
here
here
here
here
here
here
here
here
here
here
here
here
here
here
here
here
here
here
here
here
here
here
here
here
here
here
here
here
here
here
here
here
here
here
here
here
here
here
here
here
here
here
here
here
here
here
here
here
here
here
here
here
here
here
here
here
here
here
here
here
here
here
here
here
here
here
here
here
here
here
here
here
here
here
here
here
here
here
here
here
here
here
here
here
here
here
here
here
here
here
here
here
here
here
here
here
here
here
here
here
here
here
here
here
here
here
here
here
here
here
here
here
here
here
here
here
here
here
here
here
here
here
here
here
here
here
here
here
here
here
here
here
here
here
here
here
here
here
here
here
here
here
here
here
here
here
here
here
here
here
here
here
here
here
here
here
here
here
here
here
here
here
here
here
here
here
here
here
here
here
here
here
here
here
here
here
here
here
here
here
here
here
here
here
here
here
here
here
here
here
here
here
here
here
here
here
here
here
here
here
here
here
here
here
here
here
here
here
here
here
here
here
here
here
here
here
here
here
here
here
here
here
here
here
here
here
here
here
here
here
here
here
here
here
here
here
here
here
here
here
here
here
here
here
here
here
here
here
here
here
here
here
here
here
here
here
here
here
here
here
here
here
here
here
here
here
here
here
here
here
here
here
here
here
here
here
here
here
here
here
here
here
here
here
here
here
here
here
here
here
here
here
here
here
here
here
here
here
here
here
here
here
here
here
here
here
here
here
here
here
here
here
here
here
here
here
here
here
here
here
here
here
here
here
here
here
here
here
here
here
here
here
here
here
here
here
here
here
here
here
here
here
here
here
here
here
here
here
here
here
here
here
here
here
here
here
here
here
here
here
here
here
here
here
here
here
here
here
here
here
here
here
here
here
here
here
here
here
here
here
here
here
here
here
here
here
here
here
here
here
here
here
here
here
here
here
here
here
here
here
here
here
here
here
here
here
here
here
here
here
here
here
here
here
here
here
here
here
here
here
here
here
here
here
here
here
here
here
here
here
here
here
here
here
here
here
here
here
here
here
here
here
here
here
here
here
here
here
here
here
here
here
here
here
here
here
here
here
here
here
here
here
here
here
here
here
here
here
here
here
here
here
here
here
here
here
here
here
here
here
here
here
here
here
here
here
here
here
here
here
here
here
here
here
here
here
here
here
here
here
here
here
here
here
here
here
here
here
here
here
here
here
here
here
here
here
here
here
here
here
here
here
here
here
here
here
here
here
here
here
here
here
here
here
here
here
here
here
here
here
here
here
here
here
here
here
here
here
here
here
here
here
here
here
here
here
here
here
here
here
here
here
here
here
here
here
here
here
here
here
here
here
here
here
here
here
here
here
here
here
here
here
here
here
here
here
here
here
here
here
here
here
here
here
here
here
here
here
here
here
here
here
here
here
here
here
here
here
here
here
here
here
here
here
here
here
here
here
here
here
here
here
here
here
here
here
here
here
here
here
here
here
here
here
here
here
here
here
here
here
here
here
here
here
here
here
here
here
here
here
here
here
here
here
here
here
here
here
here
here
here
here
here
here
here
here
here
here
here
here
here
here
here
here
here
here
here
here
here
here
here
here
here
here
here
here
here
here
here
here
here
here
here
here
here
here
here
here
here
here
here
here
here
here
here
here
here
here
here
here
here
here
here
here
here
here
here
here
here
here
here
here
here
here
here
here
here
here
here
here
here
here
here
here
here
here
here
here
here
here
here
here
here
here
here
here
here
here
here
here
here
here
here
here
here
here
here
here
here
here
here
here
here
here
here
here
here
here
here
here
here
here
here
here
here
here
here
here
here
here
here
here
here
here
here
here
here
here
here
here
here
here
here
here
here
here
here
here
here
here
here
here
here
here
here
here
here
here
here
here
here
here
here
here
here
here
here
here
here
here
here
here
here
here
here
here
here
here
here
here
here
here
here
here
here
here
here
here
here
here
here
here
here
here
here
here
here
here
here
here
here
here
here
here
here
here
here
here
here
here
here
here
here
here
here
here
here
here
here
here
here
here
here
here
here
here
here
here
here
here
here
here
here
here
here
here
here
here
here
here
here
here
here
here
here
here
here
here
here
here
here
here
here
here
here
here
here
here
here
here
here
here
here
here
here
here
here
here
here
here
here
here
here
here
here
here
here
here
here
here
here
here
here
here
here
here
here
here
here
here
here
here
here
here
here
here
here
here
here
here
here
here
here
here
here
here
here
here
here
here
here
here
here
here
here
here
here
here
here
here
here
here
here
here
here
here
here
here
here
here
here
here
here
here
here
here
here
here
here
here
here
here
here
here
here
here
here
here
here
here
here
here
here
here
here
here
here
here
here
here
here
here
here
here
here
here
here
here
here
here
here
here
here
here
here
here
here
here
here
here
here
here
here
here
here
here
here
here
here
here
here
here
here
here
here
here
here
here
here
here
here
here
here
here
here
here
here
here
here
here
here
here
here
here
here
here
here
here
here
here
here
here
here
here
here
here
here
here
here
here
here
here
here
here
here
here
here
here
here
here
here
here
here
here
here
here
here
here
here
here
here
here
here
here
here
here
here
here
here
here
here
here
here
here
here
here
here
here
here
here
here
here
here
here
here
here
here
here
here
here
here
here
here
here
here
here
here
here
here
here
here
here
here
here
here
here
here
here
here
here
here
here
here
here
here
here
here
here
here
here
here
here
here
here
here
here
here
here
here
here
here
here
here
here
here
here
here
here
here
here
here
here
here
here
here
here
here
here
here
here
here
here
here
here
here
here
here
here
here
here
here
here
here
here
here
here
here
here
here
here
here
here
here
here
here
here
here
here
here
here
here
here
here
here
here
here
here
here
here
here
here
here
here
here
here
here
here
here
here
here
here
here
here
here
here
here
here
here
here
here
here
here
here
here
here
here
here
here
here
here
here
here
here
here
here
here
here
here
here
here
here
here
here
here
here
here
here
here
here
here
here
here
here
here
here
here
here
here
here
here
here
here
here
here
here
here
here
here
here
here
here
here
here
here
here
here
here
here
here
here
here
here
here
here
here
here
here
here
here
here
here
here
here
here
here
here
here
here
here
here
here
here
here
here
here
here
here
here
here
here
here
here
here
here
here
here
here
here
here
here
here
here
here
here
here
here
here
here
here
here
here
here
here
here
here
here
here
here
here
here
here
here
here
here
here
here
here
here
here
here
here
here
here
here
here
here
here
here
here
here
here
here
here
here
here
here
here
here
here
here
here
here
here
here
here
here
here
here
here
here
here
here
here
here
here
here
here
here
here
here
here
here
here
here
here
here
here
here
here
here
here
here
here
here
here
here
here
here
here
here
here
here
here
here
here
here
here
here
here
here
here
here
here
here
here
here
here
here
here
here
here
here
here
here
here
here
here
here
here
here
here
here
here
here
here
here
here
here
here
here
here
here
here
here
here
here
here
here
here
here
here
here
here
here
here
here
here
here
here
here
here
here
here
here
here
here
here
here
here
here
here
here
here
here
here
here
here
here
here
here
here
here
here
here
here
here
here
here
here
here
here
here
here
here
here
here
here
here
here
here
here
here
here
here
here
here
here
here
here
here
here
here
here
here
here
here
here
here
here
here
here
here
here
here
here
here
here
here
here
here
here
here
here
here
here
here
here
here
here
here
here
here
here
here
here
here
here
here
here
here
here
here
here
here
here
here
here
here
here
here
here
here
here
here
here
here
here
here
here
here
here
here
here
here
here
here
here
here
here
here
here
here
here
here
here
here
here
here
here
here
here
here
here
here
here
here
here
here
here
here
here
here
here
here
here
here
here
here
here
here
here
here
here
here
here
here
here
here
here
here
here
here
here
here
here
here
here
here
here
here
here
here
here
here
here
here
here
here
here
here
here
here
here
here
here
here
here
here
here
here
here
here
here
here
here
here
here
here
here
here
here
here
here
here
here
here
here
here
here
here
here
here
here
here
here
here
here
here
here
here
here
here
here
here
here
here
here
here
here
here
here
here
here
here
here
here
here
here
here
here
here
here
here
here
here
here
here
here
here
here
here
here
here
here
here
here
here
here
here
here
here
here
here
here
here
here
here
here
here
here
here
here
here
here
here
here
here
here
here
here
here
here
here
here
here
here
here
here
here
here
here
here
here
here
here
here
here
here
here
here
here
here
here
here
here
here
here
here
here
here
here
here
here
here
here
here
here
here
here
here
here
here
here
here
here
here
here
here
here
here
here
here
here
here
here
here
here
here
here
here
here
here
here
here
here
here
here
here
here
here
here
here
here
here
here
here
here
here
here
here
here
here
here
here
here
here
here
here
here
here
here
here
here
here
here
here
here
here
here
here
here
here
here
here
here
here
here
here
here
here
here
here
here
here
here
here
here
here
here
here
here
here
here
here
here
here
here
here
here
here
here
here
here
here
here
here
here
here
here
here
here
here
here
here
here
here
here
here
here
here
here
here
here
here
here
here
here
here
here
here
here
here
here
here
here
here
here
here
here
here
here
here
here
here
here
here
here
here
here
here
here
here
here
here
here
here
here
here
here
here
here
here
here
here
here
here
here
here
here
here
here
here
here
here
here
here
here
here
here
here
here
here
here
here
here
here
here
here
here
here
here
here
here
here
here
here
here
here
Finished CPU 0 instructions: 3000002 cycles: 9833827 cumulative IPC: 0.30507 (Simulation time: 0 hr 0 min 4 sec) 

ChampSim completed all CPUs

Region of Interest Statistics

CPU 0 cumulative IPC: 0.30507 instructions: 3000002 cycles: 9833827
L1D TOTAL     ACCESS:     525376  HIT:     468244  MISS:      57132
L1D LOAD      ACCESS:     246116  HIT:     208028  MISS:      38088
L1D RFO       ACCESS:     279260  HIT:     260216  MISS:      19044
L1D PREFETCH  ACCESS:          0  HIT:          0  MISS:          0
L1D WRITEBACK ACCESS:          0  HIT:          0  MISS:          0
L1D PREFETCH  REQUESTED:          0  ISSUED:          0  USEFUL:          0  USELESS:          0
L1D AVERAGE MISS LATENCY: 160.445 cycles
L1I TOTAL     ACCESS:     772197  HIT:     772197  MISS:          0
L1I LOAD      ACCESS:     772197  HIT:     772197  MISS:          0
L1I RFO       ACCESS:          0  HIT:          0  MISS:          0
L1I PREFETCH  ACCESS:          0  HIT:          0  MISS:          0
L1I WRITEBACK ACCESS:          0  HIT:          0  MISS:          0
L1I PREFETCH  REQUESTED:          0  ISSUED:          0  USEFUL:          0  USELESS:          0
L1I AVERAGE MISS LATENCY: -nan cycles
L2C TOTAL     ACCESS:      76176  HIT:      19044  MISS:      57132
L2C LOAD      ACCESS:      38088  HIT:          0  MISS:      38088
L2C RFO       ACCESS:      19044  HIT:          0  MISS:      19044
L2C PREFETCH  ACCESS:          0  HIT:          0  MISS:          0
L2C WRITEBACK ACCESS:      19044  HIT:      19044  MISS:          0
L2C PREFETCH  REQUESTED:          0  ISSUED:          0  USEFUL:          0  USELESS:          0
L2C AVERAGE MISS LATENCY: 144.987 cycles
LLC TOTAL     ACCESS:      76167  HIT:      19035  MISS:      57132
LLC LOAD      ACCESS:      38088  HIT:          0  MISS:      38088
LLC RFO       ACCESS:      19044  HIT:          0  MISS:      19044
LLC PREFETCH  ACCESS:          0  HIT:          0  MISS:          0
LLC WRITEBACK ACCESS:      19035  HIT:      19035  MISS:          0
LLC PREFETCH  REQUESTED:          0  ISSUED:          0  USEFUL:          0  USELESS:          0
LLC AVERAGE MISS LATENCY: 114.972 cycles
Major fault: 0 Minor fault: 1534

DRAM Statistics
 CHANNEL 0
 RQ ROW_BUFFER_HIT:      34906  ROW_BUFFER_MISS:      22226
 DBUS_CONGESTED:      13367
 WQ ROW_BUFFER_HIT:       8885  ROW_BUFFER_MISS:      10187  FULL:          0

 AVG_CONGESTED_CYCLE: 5

CPU 0 Branch Prediction Accuracy: 77.5731% MPKI: 45.5566 Average ROB Occupancy at Mispredict: 4.79317

Branch types
NOT_BRANCH: 2390571 79.6856%
BRANCH_DIRECT_JUMP: 0 0%
BRANCH_INDIRECT: 0 0%
BRANCH_CONDITIONAL: 609402 20.3134%
BRANCH_DIRECT_CALL: 0 0%
BRANCH_INDIRECT_CALL: 0 0%
BRANCH_RETURN: 0 0%
BRANCH_OTHER: 0 0%

