
*** ChampSim Multicore Out-of-Order Simulator ***

Warmup Instructions: 30000000
Simulation Instructions: 60000000
Number of CPUs: 1
LLC sets: 1024
LLC ways: 128
Off-chip DRAM Size: 4096 MB Channels: 1 Width: 64-bit Data Rate: 3200 MT/s

CPU 0 runs ../traces//bfs-3.trace.gz
CPU 0 Bimodal branch predictor
Initialize DRRIP state
Assign rand_sets[0]: 454  LLC: 1024
rand_sets[0]: 454
Assign rand_sets[1]: 638  LLC: 1024
rand_sets[1]: 638
Assign rand_sets[2]: 897  LLC: 1024
rand_sets[2]: 897
Assign rand_sets[3]: 107  LLC: 1024
rand_sets[3]: 107
Assign rand_sets[4]: 331  LLC: 1024
rand_sets[4]: 331
Assign rand_sets[5]: 507  LLC: 1024
rand_sets[5]: 507
Assign rand_sets[6]: 482  LLC: 1024
rand_sets[6]: 482
Assign rand_sets[7]: 251  LLC: 1024
rand_sets[7]: 251
Assign rand_sets[8]: 852  LLC: 1024
rand_sets[8]: 852
Assign rand_sets[9]: 1014  LLC: 1024
rand_sets[9]: 1014
Assign rand_sets[10]: 701  LLC: 1024
rand_sets[10]: 701
Assign rand_sets[11]: 479  LLC: 1024
rand_sets[11]: 479
Assign rand_sets[12]: 892  LLC: 1024
rand_sets[12]: 892
Assign rand_sets[13]: 796  LLC: 1024
rand_sets[13]: 796
Assign rand_sets[14]: 481  LLC: 1024
rand_sets[14]: 481
Assign rand_sets[15]: 135  LLC: 1024
rand_sets[15]: 135
Assign rand_sets[16]: 513  LLC: 1024
rand_sets[16]: 513
Assign rand_sets[17]: 703  LLC: 1024
rand_sets[17]: 703
Assign rand_sets[18]: 561  LLC: 1024
rand_sets[18]: 561
Assign rand_sets[19]: 990  LLC: 1024
rand_sets[19]: 990
Assign rand_sets[20]: 342  LLC: 1024
rand_sets[20]: 342
Assign rand_sets[21]: 882  LLC: 1024
rand_sets[21]: 882
Assign rand_sets[22]: 15  LLC: 1024
rand_sets[22]: 15
Assign rand_sets[23]: 71  LLC: 1024
rand_sets[23]: 71
Assign rand_sets[24]: 103  LLC: 1024
rand_sets[24]: 103
Assign rand_sets[25]: 358  LLC: 1024
rand_sets[25]: 358
Assign rand_sets[26]: 647  LLC: 1024
rand_sets[26]: 647
Assign rand_sets[27]: 857  LLC: 1024
rand_sets[27]: 857
Assign rand_sets[28]: 426  LLC: 1024
rand_sets[28]: 426
Assign rand_sets[29]: 136  LLC: 1024
rand_sets[29]: 136
Assign rand_sets[30]: 828  LLC: 1024
rand_sets[30]: 828
Assign rand_sets[31]: 857  LLC: 1024
Assign rand_sets[31]: 746  LLC: 1024
rand_sets[31]: 746
Assign rand_sets[32]: 598  LLC: 1024
rand_sets[32]: 598
Assign rand_sets[33]: 275  LLC: 1024
rand_sets[33]: 275
Assign rand_sets[34]: 635  LLC: 1024
rand_sets[34]: 635
Assign rand_sets[35]: 466  LLC: 1024
rand_sets[35]: 466
Assign rand_sets[36]: 389  LLC: 1024
rand_sets[36]: 389
Assign rand_sets[37]: 417  LLC: 1024
rand_sets[37]: 417
Assign rand_sets[38]: 472  LLC: 1024
rand_sets[38]: 472
Assign rand_sets[39]: 316  LLC: 1024
rand_sets[39]: 316
Assign rand_sets[40]: 852  LLC: 1024
Assign rand_sets[40]: 341  LLC: 1024
rand_sets[40]: 341
Assign rand_sets[41]: 47  LLC: 1024
rand_sets[41]: 47
Assign rand_sets[42]: 823  LLC: 1024
rand_sets[42]: 823
Assign rand_sets[43]: 686  LLC: 1024
rand_sets[43]: 686
Assign rand_sets[44]: 613  LLC: 1024
rand_sets[44]: 613
Assign rand_sets[45]: 91  LLC: 1024
rand_sets[45]: 91
Assign rand_sets[46]: 986  LLC: 1024
rand_sets[46]: 986
Assign rand_sets[47]: 258  LLC: 1024
rand_sets[47]: 258
Assign rand_sets[48]: 633  LLC: 1024
rand_sets[48]: 633
Assign rand_sets[49]: 920  LLC: 1024
rand_sets[49]: 920
Assign rand_sets[50]: 204  LLC: 1024
rand_sets[50]: 204
Assign rand_sets[51]: 227  LLC: 1024
rand_sets[51]: 227
Assign rand_sets[52]: 794  LLC: 1024
rand_sets[52]: 794
Assign rand_sets[53]: 886  LLC: 1024
rand_sets[53]: 886
Assign rand_sets[54]: 398  LLC: 1024
rand_sets[54]: 398
Assign rand_sets[55]: 607  LLC: 1024
rand_sets[55]: 607
Assign rand_sets[56]: 217  LLC: 1024
rand_sets[56]: 217
Assign rand_sets[57]: 921  LLC: 1024
rand_sets[57]: 921
Assign rand_sets[58]: 143  LLC: 1024
rand_sets[58]: 143
Assign rand_sets[59]: 287  LLC: 1024
rand_sets[59]: 287
Assign rand_sets[60]: 319  LLC: 1024
rand_sets[60]: 319
Assign rand_sets[61]: 822  LLC: 1024
rand_sets[61]: 822
Assign rand_sets[62]: 238  LLC: 1024
rand_sets[62]: 238
Assign rand_sets[63]: 67  LLC: 1024
rand_sets[63]: 67
Heartbeat CPU 0 instructions: 10000002 cycles: 2954807 heartbeat IPC: 3.38432 cumulative IPC: 3.38432 (Simulation time: 0 hr 0 min 10 sec) 
Heartbeat CPU 0 instructions: 20000002 cycles: 6307536 heartbeat IPC: 2.98264 cumulative IPC: 3.17081 (Simulation time: 0 hr 0 min 29 sec) 
Heartbeat CPU 0 instructions: 30000002 cycles: 9663403 heartbeat IPC: 2.97986 cumulative IPC: 3.1045 (Simulation time: 0 hr 0 min 50 sec) 

Warmup complete CPU 0 instructions: 30000002 cycles: 9663403 (Simulation time: 0 hr 0 min 50 sec) 

Heartbeat CPU 0 instructions: 40000000 cycles: 51287369 heartbeat IPC: 0.240246 cumulative IPC: 0.240246 (Simulation time: 0 hr 1 min 10 sec) 
Heartbeat CPU 0 instructions: 50000000 cycles: 97220333 heartbeat IPC: 0.217709 cumulative IPC: 0.228423 (Simulation time: 0 hr 1 min 34 sec) 
Heartbeat CPU 0 instructions: 60000000 cycles: 150044894 heartbeat IPC: 0.189306 cumulative IPC: 0.213703 (Simulation time: 0 hr 1 min 56 sec) 
Heartbeat CPU 0 instructions: 70000002 cycles: 179603659 heartbeat IPC: 0.338309 cumulative IPC: 0.235377 (Simulation time: 0 hr 2 min 15 sec) 
Heartbeat CPU 0 instructions: 80000001 cycles: 187534818 heartbeat IPC: 1.26085 cumulative IPC: 0.281102 (Simulation time: 0 hr 2 min 27 sec) 
Heartbeat CPU 0 instructions: 90000002 cycles: 204116372 heartbeat IPC: 0.60308 cumulative IPC: 0.308558 (Simulation time: 0 hr 2 min 43 sec) 
Finished CPU 0 instructions: 60000000 cycles: 194452969 cumulative IPC: 0.308558 (Simulation time: 0 hr 2 min 43 sec) 

ChampSim completed all CPUs

Region of Interest Statistics

CPU 0 cumulative IPC: 0.308558 instructions: 60000000 cycles: 194452969
L1D TOTAL     ACCESS:   11507689  HIT:    9966511  MISS:    1541178
L1D LOAD      ACCESS:   10213990  HIT:    8707328  MISS:    1506662
L1D RFO       ACCESS:    1293699  HIT:    1259183  MISS:      34516
L1D PREFETCH  ACCESS:          0  HIT:          0  MISS:          0
L1D WRITEBACK ACCESS:          0  HIT:          0  MISS:          0
L1D PREFETCH  REQUESTED:          0  ISSUED:          0  USEFUL:          0  USELESS:          0
L1D AVERAGE MISS LATENCY: 84.8699 cycles
L1I TOTAL     ACCESS:   12276905  HIT:   12276890  MISS:         15
L1I LOAD      ACCESS:   12276905  HIT:   12276890  MISS:         15
L1I RFO       ACCESS:          0  HIT:          0  MISS:          0
L1I PREFETCH  ACCESS:          0  HIT:          0  MISS:          0
L1I WRITEBACK ACCESS:          0  HIT:          0  MISS:          0
L1I PREFETCH  REQUESTED:          0  ISSUED:          0  USEFUL:          0  USELESS:          0
L1I AVERAGE MISS LATENCY: 188.933 cycles
L2C TOTAL     ACCESS:    1673595  HIT:     705504  MISS:     968091
L2C LOAD      ACCESS:    1506677  HIT:     569774  MISS:     936903
L2C RFO       ACCESS:      34516  HIT:       3333  MISS:      31183
L2C PREFETCH  ACCESS:          0  HIT:          0  MISS:          0
L2C WRITEBACK ACCESS:     132402  HIT:     132397  MISS:          5
L2C PREFETCH  REQUESTED:          0  ISSUED:          0  USEFUL:          0  USELESS:          0
L2C AVERAGE MISS LATENCY: 110.644 cycles
LLC TOTAL     ACCESS:    1098848  HIT:     426994  MISS:     671854
LLC LOAD      ACCESS:     936903  HIT:     298224  MISS:     638679
LLC RFO       ACCESS:      31183  HIT:      30704  MISS:        479
LLC PREFETCH  ACCESS:          0  HIT:          0  MISS:          0
LLC WRITEBACK ACCESS:     130762  HIT:      98066  MISS:      32696
LLC PREFETCH  REQUESTED:          0  ISSUED:          0  USEFUL:          0  USELESS:          0
LLC AVERAGE MISS LATENCY: 115.903 cycles
Major fault: 0 Minor fault: 27003

DRAM Statistics
 CHANNEL 0
 RQ ROW_BUFFER_HIT:     319571  ROW_BUFFER_MISS:     319587
 DBUS_CONGESTED:       5388
 WQ ROW_BUFFER_HIT:       2346  ROW_BUFFER_MISS:       5336  FULL:          0

 AVG_CONGESTED_CYCLE: 5

CPU 0 Branch Prediction Accuracy: 85.3403% MPKI: 33.026 Average ROB Occupancy at Mispredict: 6.17706

Branch types
NOT_BRANCH: 46482591 77.471%
BRANCH_DIRECT_JUMP: 1748 0.00291333%
BRANCH_INDIRECT: 1 1.66667e-06%
BRANCH_CONDITIONAL: 13515155 22.5253%
BRANCH_DIRECT_CALL: 64 0.000106667%
BRANCH_INDIRECT_CALL: 3 5e-06%
BRANCH_RETURN: 67 0.000111667%
BRANCH_OTHER: 0 0%


gzip: stdout: Broken pipe
