
*** ChampSim Multicore Out-of-Order Simulator ***

Warmup Instructions: 30000000
Simulation Instructions: 60000000
Number of CPUs: 1
LLC sets: 1024
LLC ways: 32
Off-chip DRAM Size: 4096 MB Channels: 1 Width: 64-bit Data Rate: 3200 MT/s

CPU 0 runs ../traces//bfs-3.trace.gz
CPU 0 Bimodal branch predictor
Initialize DRRIP state
Assign rand_sets[0]: 454  LLC: 1024
rand_sets[0]: 454
Assign rand_sets[1]: 638  LLC: 1024
rand_sets[1]: 638
Assign rand_sets[2]: 897  LLC: 1024
rand_sets[2]: 897
Assign rand_sets[3]: 107  LLC: 1024
rand_sets[3]: 107
Assign rand_sets[4]: 331  LLC: 1024
rand_sets[4]: 331
Assign rand_sets[5]: 507  LLC: 1024
rand_sets[5]: 507
Assign rand_sets[6]: 482  LLC: 1024
rand_sets[6]: 482
Assign rand_sets[7]: 251  LLC: 1024
rand_sets[7]: 251
Assign rand_sets[8]: 852  LLC: 1024
rand_sets[8]: 852
Assign rand_sets[9]: 1014  LLC: 1024
rand_sets[9]: 1014
Assign rand_sets[10]: 701  LLC: 1024
rand_sets[10]: 701
Assign rand_sets[11]: 479  LLC: 1024
rand_sets[11]: 479
Assign rand_sets[12]: 892  LLC: 1024
rand_sets[12]: 892
Assign rand_sets[13]: 796  LLC: 1024
rand_sets[13]: 796
Assign rand_sets[14]: 481  LLC: 1024
rand_sets[14]: 481
Assign rand_sets[15]: 135  LLC: 1024
rand_sets[15]: 135
Assign rand_sets[16]: 513  LLC: 1024
rand_sets[16]: 513
Assign rand_sets[17]: 703  LLC: 1024
rand_sets[17]: 703
Assign rand_sets[18]: 561  LLC: 1024
rand_sets[18]: 561
Assign rand_sets[19]: 990  LLC: 1024
rand_sets[19]: 990
Assign rand_sets[20]: 342  LLC: 1024
rand_sets[20]: 342
Assign rand_sets[21]: 882  LLC: 1024
rand_sets[21]: 882
Assign rand_sets[22]: 15  LLC: 1024
rand_sets[22]: 15
Assign rand_sets[23]: 71  LLC: 1024
rand_sets[23]: 71
Assign rand_sets[24]: 103  LLC: 1024
rand_sets[24]: 103
Assign rand_sets[25]: 358  LLC: 1024
rand_sets[25]: 358
Assign rand_sets[26]: 647  LLC: 1024
rand_sets[26]: 647
Assign rand_sets[27]: 857  LLC: 1024
rand_sets[27]: 857
Assign rand_sets[28]: 426  LLC: 1024
rand_sets[28]: 426
Assign rand_sets[29]: 136  LLC: 1024
rand_sets[29]: 136
Assign rand_sets[30]: 828  LLC: 1024
rand_sets[30]: 828
Assign rand_sets[31]: 857  LLC: 1024
Assign rand_sets[31]: 746  LLC: 1024
rand_sets[31]: 746
Assign rand_sets[32]: 598  LLC: 1024
rand_sets[32]: 598
Assign rand_sets[33]: 275  LLC: 1024
rand_sets[33]: 275
Assign rand_sets[34]: 635  LLC: 1024
rand_sets[34]: 635
Assign rand_sets[35]: 466  LLC: 1024
rand_sets[35]: 466
Assign rand_sets[36]: 389  LLC: 1024
rand_sets[36]: 389
Assign rand_sets[37]: 417  LLC: 1024
rand_sets[37]: 417
Assign rand_sets[38]: 472  LLC: 1024
rand_sets[38]: 472
Assign rand_sets[39]: 316  LLC: 1024
rand_sets[39]: 316
Assign rand_sets[40]: 852  LLC: 1024
Assign rand_sets[40]: 341  LLC: 1024
rand_sets[40]: 341
Assign rand_sets[41]: 47  LLC: 1024
rand_sets[41]: 47
Assign rand_sets[42]: 823  LLC: 1024
rand_sets[42]: 823
Assign rand_sets[43]: 686  LLC: 1024
rand_sets[43]: 686
Assign rand_sets[44]: 613  LLC: 1024
rand_sets[44]: 613
Assign rand_sets[45]: 91  LLC: 1024
rand_sets[45]: 91
Assign rand_sets[46]: 986  LLC: 1024
rand_sets[46]: 986
Assign rand_sets[47]: 258  LLC: 1024
rand_sets[47]: 258
Assign rand_sets[48]: 633  LLC: 1024
rand_sets[48]: 633
Assign rand_sets[49]: 920  LLC: 1024
rand_sets[49]: 920
Assign rand_sets[50]: 204  LLC: 1024
rand_sets[50]: 204
Assign rand_sets[51]: 227  LLC: 1024
rand_sets[51]: 227
Assign rand_sets[52]: 794  LLC: 1024
rand_sets[52]: 794
Assign rand_sets[53]: 886  LLC: 1024
rand_sets[53]: 886
Assign rand_sets[54]: 398  LLC: 1024
rand_sets[54]: 398
Assign rand_sets[55]: 607  LLC: 1024
rand_sets[55]: 607
Assign rand_sets[56]: 217  LLC: 1024
rand_sets[56]: 217
Assign rand_sets[57]: 921  LLC: 1024
rand_sets[57]: 921
Assign rand_sets[58]: 143  LLC: 1024
rand_sets[58]: 143
Assign rand_sets[59]: 287  LLC: 1024
rand_sets[59]: 287
Assign rand_sets[60]: 319  LLC: 1024
rand_sets[60]: 319
Assign rand_sets[61]: 822  LLC: 1024
rand_sets[61]: 822
Assign rand_sets[62]: 238  LLC: 1024
rand_sets[62]: 238
Assign rand_sets[63]: 67  LLC: 1024
rand_sets[63]: 67
Heartbeat CPU 0 instructions: 10000002 cycles: 2954807 heartbeat IPC: 3.38432 cumulative IPC: 3.38432 (Simulation time: 0 hr 0 min 4 sec) 
Heartbeat CPU 0 instructions: 20000002 cycles: 6307984 heartbeat IPC: 2.98225 cumulative IPC: 3.17059 (Simulation time: 0 hr 0 min 15 sec) 
Heartbeat CPU 0 instructions: 30000002 cycles: 9664151 heartbeat IPC: 2.97959 cumulative IPC: 3.10426 (Simulation time: 0 hr 0 min 25 sec) 

Warmup complete CPU 0 instructions: 30000002 cycles: 9664151 (Simulation time: 0 hr 0 min 25 sec) 

Heartbeat CPU 0 instructions: 40000000 cycles: 56935831 heartbeat IPC: 0.211543 cumulative IPC: 0.211543 (Simulation time: 0 hr 0 min 37 sec) 
Heartbeat CPU 0 instructions: 50000000 cycles: 114562646 heartbeat IPC: 0.17353 cumulative IPC: 0.19066 (Simulation time: 0 hr 0 min 52 sec) 
Heartbeat CPU 0 instructions: 60000000 cycles: 180784262 heartbeat IPC: 0.151008 cumulative IPC: 0.175315 (Simulation time: 0 hr 1 min 8 sec) 
Heartbeat CPU 0 instructions: 70000002 cycles: 231255747 heartbeat IPC: 0.198132 cumulative IPC: 0.180512 (Simulation time: 0 hr 1 min 20 sec) 
Heartbeat CPU 0 instructions: 80000001 cycles: 239326888 heartbeat IPC: 1.23898 cumulative IPC: 0.217711 (Simulation time: 0 hr 1 min 25 sec) 
Heartbeat CPU 0 instructions: 90000002 cycles: 268806712 heartbeat IPC: 0.339215 cumulative IPC: 0.231533 (Simulation time: 0 hr 1 min 39 sec) 
Finished CPU 0 instructions: 60000000 cycles: 259142561 cumulative IPC: 0.231533 (Simulation time: 0 hr 1 min 39 sec) 

ChampSim completed all CPUs

Region of Interest Statistics

CPU 0 cumulative IPC: 0.231533 instructions: 60000000 cycles: 259142561
L1D TOTAL     ACCESS:   11377810  HIT:    9836625  MISS:    1541185
L1D LOAD      ACCESS:   10092589  HIT:    8585920  MISS:    1506669
L1D RFO       ACCESS:    1285221  HIT:    1250705  MISS:      34516
L1D PREFETCH  ACCESS:          0  HIT:          0  MISS:          0
L1D WRITEBACK ACCESS:          0  HIT:          0  MISS:          0
L1D PREFETCH  REQUESTED:          0  ISSUED:          0  USEFUL:          0  USELESS:          0
L1D AVERAGE MISS LATENCY: 140.168 cycles
L1I TOTAL     ACCESS:   12325729  HIT:   12325714  MISS:         15
L1I LOAD      ACCESS:   12325729  HIT:   12325714  MISS:         15
L1I RFO       ACCESS:          0  HIT:          0  MISS:          0
L1I PREFETCH  ACCESS:          0  HIT:          0  MISS:          0
L1I WRITEBACK ACCESS:          0  HIT:          0  MISS:          0
L1I PREFETCH  REQUESTED:          0  ISSUED:          0  USEFUL:          0  USELESS:          0
L1I AVERAGE MISS LATENCY: 373.533 cycles
L2C TOTAL     ACCESS:    3082154  HIT:    1103667  MISS:    1978487
L2C LOAD      ACCESS:    1506506  HIT:     548365  MISS:     958141
L2C RFO       ACCESS:      34516  HIT:       3305  MISS:      31211
L2C PREFETCH  ACCESS:          0  HIT:          0  MISS:          0
L2C WRITEBACK ACCESS:    1541132  HIT:     551997  MISS:     989135
L2C PREFETCH  REQUESTED:          0  ISSUED:          0  USEFUL:          0  USELESS:          0
L2C AVERAGE MISS LATENCY: 97.2453 cycles
LLC TOTAL     ACCESS:    2967832  HIT:    1096068  MISS:    1871764
LLC LOAD      ACCESS:     958133  HIT:      56344  MISS:     901789
LLC RFO       ACCESS:      31211  HIT:       2054  MISS:      29157
LLC PREFETCH  ACCESS:          0  HIT:          0  MISS:          0
LLC WRITEBACK ACCESS:    1978488  HIT:    1037670  MISS:     940818
LLC PREFETCH  REQUESTED:          0  ISSUED:          0  USEFUL:          0  USELESS:          0
LLC AVERAGE MISS LATENCY: 86.8461 cycles
Major fault: 0 Minor fault: 27003

DRAM Statistics
 CHANNEL 0
 RQ ROW_BUFFER_HIT:       6224  ROW_BUFFER_MISS:     924719
 DBUS_CONGESTED:     833175
 WQ ROW_BUFFER_HIT:     882740  ROW_BUFFER_MISS:     979927  FULL:       4594

 AVG_CONGESTED_CYCLE: 6

CPU 0 Branch Prediction Accuracy: 85.3403% MPKI: 33.026 Average ROB Occupancy at Mispredict: 6.26563

Branch types
NOT_BRANCH: 46482591 77.471%
BRANCH_DIRECT_JUMP: 1748 0.00291333%
BRANCH_INDIRECT: 1 1.66667e-06%
BRANCH_CONDITIONAL: 13515155 22.5253%
BRANCH_DIRECT_CALL: 64 0.000106667%
BRANCH_INDIRECT_CALL: 3 5e-06%
BRANCH_RETURN: 67 0.000111667%
BRANCH_OTHER: 0 0%

