
*** ChampSim Multicore Out-of-Order Simulator ***

Warmup Instructions: 30000000
Simulation Instructions: 60000000
Number of CPUs: 1
LLC sets: 1024
LLC ways: 32
Off-chip DRAM Size: 4096 MB Channels: 1 Width: 64-bit Data Rate: 3200 MT/s

CPU 0 runs ../traces//sssp-14.trace.gz
CPU 0 Bimodal branch predictor
Initialize DRRIP state
Assign rand_sets[0]: 454  LLC: 1024
rand_sets[0]: 454
Assign rand_sets[1]: 638  LLC: 1024
rand_sets[1]: 638
Assign rand_sets[2]: 897  LLC: 1024
rand_sets[2]: 897
Assign rand_sets[3]: 107  LLC: 1024
rand_sets[3]: 107
Assign rand_sets[4]: 331  LLC: 1024
rand_sets[4]: 331
Assign rand_sets[5]: 507  LLC: 1024
rand_sets[5]: 507
Assign rand_sets[6]: 482  LLC: 1024
rand_sets[6]: 482
Assign rand_sets[7]: 251  LLC: 1024
rand_sets[7]: 251
Assign rand_sets[8]: 852  LLC: 1024
rand_sets[8]: 852
Assign rand_sets[9]: 1014  LLC: 1024
rand_sets[9]: 1014
Assign rand_sets[10]: 701  LLC: 1024
rand_sets[10]: 701
Assign rand_sets[11]: 479  LLC: 1024
rand_sets[11]: 479
Assign rand_sets[12]: 892  LLC: 1024
rand_sets[12]: 892
Assign rand_sets[13]: 796  LLC: 1024
rand_sets[13]: 796
Assign rand_sets[14]: 481  LLC: 1024
rand_sets[14]: 481
Assign rand_sets[15]: 135  LLC: 1024
rand_sets[15]: 135
Assign rand_sets[16]: 513  LLC: 1024
rand_sets[16]: 513
Assign rand_sets[17]: 703  LLC: 1024
rand_sets[17]: 703
Assign rand_sets[18]: 561  LLC: 1024
rand_sets[18]: 561
Assign rand_sets[19]: 990  LLC: 1024
rand_sets[19]: 990
Assign rand_sets[20]: 342  LLC: 1024
rand_sets[20]: 342
Assign rand_sets[21]: 882  LLC: 1024
rand_sets[21]: 882
Assign rand_sets[22]: 15  LLC: 1024
rand_sets[22]: 15
Assign rand_sets[23]: 71  LLC: 1024
rand_sets[23]: 71
Assign rand_sets[24]: 103  LLC: 1024
rand_sets[24]: 103
Assign rand_sets[25]: 358  LLC: 1024
rand_sets[25]: 358
Assign rand_sets[26]: 647  LLC: 1024
rand_sets[26]: 647
Assign rand_sets[27]: 857  LLC: 1024
rand_sets[27]: 857
Assign rand_sets[28]: 426  LLC: 1024
rand_sets[28]: 426
Assign rand_sets[29]: 136  LLC: 1024
rand_sets[29]: 136
Assign rand_sets[30]: 828  LLC: 1024
rand_sets[30]: 828
Assign rand_sets[31]: 857  LLC: 1024
Assign rand_sets[31]: 746  LLC: 1024
rand_sets[31]: 746
Assign rand_sets[32]: 598  LLC: 1024
rand_sets[32]: 598
Assign rand_sets[33]: 275  LLC: 1024
rand_sets[33]: 275
Assign rand_sets[34]: 635  LLC: 1024
rand_sets[34]: 635
Assign rand_sets[35]: 466  LLC: 1024
rand_sets[35]: 466
Assign rand_sets[36]: 389  LLC: 1024
rand_sets[36]: 389
Assign rand_sets[37]: 417  LLC: 1024
rand_sets[37]: 417
Assign rand_sets[38]: 472  LLC: 1024
rand_sets[38]: 472
Assign rand_sets[39]: 316  LLC: 1024
rand_sets[39]: 316
Assign rand_sets[40]: 852  LLC: 1024
Assign rand_sets[40]: 341  LLC: 1024
rand_sets[40]: 341
Assign rand_sets[41]: 47  LLC: 1024
rand_sets[41]: 47
Assign rand_sets[42]: 823  LLC: 1024
rand_sets[42]: 823
Assign rand_sets[43]: 686  LLC: 1024
rand_sets[43]: 686
Assign rand_sets[44]: 613  LLC: 1024
rand_sets[44]: 613
Assign rand_sets[45]: 91  LLC: 1024
rand_sets[45]: 91
Assign rand_sets[46]: 986  LLC: 1024
rand_sets[46]: 986
Assign rand_sets[47]: 258  LLC: 1024
rand_sets[47]: 258
Assign rand_sets[48]: 633  LLC: 1024
rand_sets[48]: 633
Assign rand_sets[49]: 920  LLC: 1024
rand_sets[49]: 920
Assign rand_sets[50]: 204  LLC: 1024
rand_sets[50]: 204
Assign rand_sets[51]: 227  LLC: 1024
rand_sets[51]: 227
Assign rand_sets[52]: 794  LLC: 1024
rand_sets[52]: 794
Assign rand_sets[53]: 886  LLC: 1024
rand_sets[53]: 886
Assign rand_sets[54]: 398  LLC: 1024
rand_sets[54]: 398
Assign rand_sets[55]: 607  LLC: 1024
rand_sets[55]: 607
Assign rand_sets[56]: 217  LLC: 1024
rand_sets[56]: 217
Assign rand_sets[57]: 921  LLC: 1024
rand_sets[57]: 921
Assign rand_sets[58]: 143  LLC: 1024
rand_sets[58]: 143
Assign rand_sets[59]: 287  LLC: 1024
rand_sets[59]: 287
Assign rand_sets[60]: 319  LLC: 1024
rand_sets[60]: 319
Assign rand_sets[61]: 822  LLC: 1024
rand_sets[61]: 822
Assign rand_sets[62]: 238  LLC: 1024
rand_sets[62]: 238
Assign rand_sets[63]: 67  LLC: 1024
rand_sets[63]: 67
Heartbeat CPU 0 instructions: 10000000 cycles: 3726852 heartbeat IPC: 2.68323 cumulative IPC: 2.68323 (Simulation time: 0 hr 0 min 38 sec) 
Heartbeat CPU 0 instructions: 20000003 cycles: 7675376 heartbeat IPC: 2.53259 cumulative IPC: 2.60574 (Simulation time: 0 hr 1 min 21 sec) 
Heartbeat CPU 0 instructions: 30000001 cycles: 11804224 heartbeat IPC: 2.42198 cumulative IPC: 2.54146 (Simulation time: 0 hr 2 min 5 sec) 

Warmup complete CPU 0 instructions: 30000001 cycles: 11804224 (Simulation time: 0 hr 2 min 5 sec) 

Heartbeat CPU 0 instructions: 40000003 cycles: 53349494 heartbeat IPC: 0.240701 cumulative IPC: 0.240701 (Simulation time: 0 hr 3 min 9 sec) 
Heartbeat CPU 0 instructions: 50000000 cycles: 92749852 heartbeat IPC: 0.253805 cumulative IPC: 0.247079 (Simulation time: 0 hr 4 min 15 sec) 
Heartbeat CPU 0 instructions: 60000002 cycles: 132233783 heartbeat IPC: 0.253268 cumulative IPC: 0.249108 (Simulation time: 0 hr 5 min 24 sec) 
Heartbeat CPU 0 instructions: 70000001 cycles: 170726403 heartbeat IPC: 0.25979 cumulative IPC: 0.251696 (Simulation time: 0 hr 6 min 30 sec) 
Heartbeat CPU 0 instructions: 80000003 cycles: 208280674 heartbeat IPC: 0.266281 cumulative IPC: 0.254483 (Simulation time: 0 hr 7 min 21 sec) 
Heartbeat CPU 0 instructions: 90000003 cycles: 245518462 heartbeat IPC: 0.268544 cumulative IPC: 0.256724 (Simulation time: 0 hr 7 min 45 sec) 
Finished CPU 0 instructions: 60000002 cycles: 233714238 cumulative IPC: 0.256724 (Simulation time: 0 hr 7 min 45 sec) 

ChampSim completed all CPUs

Region of Interest Statistics

CPU 0 cumulative IPC: 0.256724 instructions: 60000002 cycles: 233714238
L1D TOTAL     ACCESS:   13640441  HIT:   10499976  MISS:    3140465
L1D LOAD      ACCESS:   12533453  HIT:    9616423  MISS:    2917030
L1D RFO       ACCESS:    1106988  HIT:     883553  MISS:     223435
L1D PREFETCH  ACCESS:          0  HIT:          0  MISS:          0
L1D WRITEBACK ACCESS:          0  HIT:          0  MISS:          0
L1D PREFETCH  REQUESTED:          0  ISSUED:          0  USEFUL:          0  USELESS:          0
L1D AVERAGE MISS LATENCY: 153.85 cycles
L1I TOTAL     ACCESS:    6565492  HIT:    6565492  MISS:          0
L1I LOAD      ACCESS:    6565492  HIT:    6565492  MISS:          0
L1I RFO       ACCESS:          0  HIT:          0  MISS:          0
L1I PREFETCH  ACCESS:          0  HIT:          0  MISS:          0
L1I WRITEBACK ACCESS:          0  HIT:          0  MISS:          0
L1I PREFETCH  REQUESTED:          0  ISSUED:          0  USEFUL:          0  USELESS:          0
L1I AVERAGE MISS LATENCY: -nan cycles
L2C TOTAL     ACCESS:    6280913  HIT:     741365  MISS:    5539548
L2C LOAD      ACCESS:    2917023  HIT:     593467  MISS:    2323556
L2C RFO       ACCESS:     223426  HIT:     147882  MISS:      75544
L2C PREFETCH  ACCESS:          0  HIT:          0  MISS:          0
L2C WRITEBACK ACCESS:    3140464  HIT:         16  MISS:    3140448
L2C PREFETCH  REQUESTED:          0  ISSUED:          0  USEFUL:          0  USELESS:          0
L2C AVERAGE MISS LATENCY: 78.3987 cycles
LLC TOTAL     ACCESS:    7197227  HIT:    2086900  MISS:    5110327
LLC LOAD      ACCESS:    2323515  HIT:     494197  MISS:    1829318
LLC RFO       ACCESS:      75542  HIT:      15189  MISS:      60353
LLC PREFETCH  ACCESS:          0  HIT:          0  MISS:          0
LLC WRITEBACK ACCESS:    4798170  HIT:    1577514  MISS:    3220656
LLC PREFETCH  REQUESTED:          0  ISSUED:          0  USEFUL:          0  USELESS:          0
LLC AVERAGE MISS LATENCY: 70.8117 cycles
Major fault: 0 Minor fault: 13130

DRAM Statistics
 CHANNEL 0
 RQ ROW_BUFFER_HIT:     157419  ROW_BUFFER_MISS:    1732019
 DBUS_CONGESTED:    1757661
 WQ ROW_BUFFER_HIT:    1375153  ROW_BUFFER_MISS:     513387  FULL:          0

 AVG_CONGESTED_CYCLE: 6

CPU 0 Branch Prediction Accuracy: 95.4728% MPKI: 6.69448 Average ROB Occupancy at Mispredict: 97.7681

Branch types
NOT_BRANCH: 51127315 85.2122%
BRANCH_DIRECT_JUMP: 2586843 4.3114%
BRANCH_INDIRECT: 0 0%
BRANCH_CONDITIONAL: 6283280 10.4721%
BRANCH_DIRECT_CALL: 1126 0.00187667%
BRANCH_INDIRECT_CALL: 0 0%
BRANCH_RETURN: 1126 0.00187667%
BRANCH_OTHER: 0 0%


gzip: stdout: Broken pipe
