
*** ChampSim Multicore Out-of-Order Simulator ***

Warmup Instructions: 30000000
Simulation Instructions: 60000000
Number of CPUs: 1
LLC sets: 1024
LLC ways: 32
Off-chip DRAM Size: 4096 MB Channels: 1 Width: 64-bit Data Rate: 3200 MT/s

CPU 0 runs ../traces//bfs-3.trace.gz
CPU 0 Bimodal branch predictor
Initialize DRRIP state
Assign rand_sets[0]: 454  LLC: 1024
rand_sets[0]: 454
Assign rand_sets[1]: 638  LLC: 1024
rand_sets[1]: 638
Assign rand_sets[2]: 897  LLC: 1024
rand_sets[2]: 897
Assign rand_sets[3]: 107  LLC: 1024
rand_sets[3]: 107
Assign rand_sets[4]: 331  LLC: 1024
rand_sets[4]: 331
Assign rand_sets[5]: 507  LLC: 1024
rand_sets[5]: 507
Assign rand_sets[6]: 482  LLC: 1024
rand_sets[6]: 482
Assign rand_sets[7]: 251  LLC: 1024
rand_sets[7]: 251
Assign rand_sets[8]: 852  LLC: 1024
rand_sets[8]: 852
Assign rand_sets[9]: 1014  LLC: 1024
rand_sets[9]: 1014
Assign rand_sets[10]: 701  LLC: 1024
rand_sets[10]: 701
Assign rand_sets[11]: 479  LLC: 1024
rand_sets[11]: 479
Assign rand_sets[12]: 892  LLC: 1024
rand_sets[12]: 892
Assign rand_sets[13]: 796  LLC: 1024
rand_sets[13]: 796
Assign rand_sets[14]: 481  LLC: 1024
rand_sets[14]: 481
Assign rand_sets[15]: 135  LLC: 1024
rand_sets[15]: 135
Assign rand_sets[16]: 513  LLC: 1024
rand_sets[16]: 513
Assign rand_sets[17]: 703  LLC: 1024
rand_sets[17]: 703
Assign rand_sets[18]: 561  LLC: 1024
rand_sets[18]: 561
Assign rand_sets[19]: 990  LLC: 1024
rand_sets[19]: 990
Assign rand_sets[20]: 342  LLC: 1024
rand_sets[20]: 342
Assign rand_sets[21]: 882  LLC: 1024
rand_sets[21]: 882
Assign rand_sets[22]: 15  LLC: 1024
rand_sets[22]: 15
Assign rand_sets[23]: 71  LLC: 1024
rand_sets[23]: 71
Assign rand_sets[24]: 103  LLC: 1024
rand_sets[24]: 103
Assign rand_sets[25]: 358  LLC: 1024
rand_sets[25]: 358
Assign rand_sets[26]: 647  LLC: 1024
rand_sets[26]: 647
Assign rand_sets[27]: 857  LLC: 1024
rand_sets[27]: 857
Assign rand_sets[28]: 426  LLC: 1024
rand_sets[28]: 426
Assign rand_sets[29]: 136  LLC: 1024
rand_sets[29]: 136
Assign rand_sets[30]: 828  LLC: 1024
rand_sets[30]: 828
Assign rand_sets[31]: 857  LLC: 1024
Assign rand_sets[31]: 746  LLC: 1024
rand_sets[31]: 746
Assign rand_sets[32]: 598  LLC: 1024
rand_sets[32]: 598
Assign rand_sets[33]: 275  LLC: 1024
rand_sets[33]: 275
Assign rand_sets[34]: 635  LLC: 1024
rand_sets[34]: 635
Assign rand_sets[35]: 466  LLC: 1024
rand_sets[35]: 466
Assign rand_sets[36]: 389  LLC: 1024
rand_sets[36]: 389
Assign rand_sets[37]: 417  LLC: 1024
rand_sets[37]: 417
Assign rand_sets[38]: 472  LLC: 1024
rand_sets[38]: 472
Assign rand_sets[39]: 316  LLC: 1024
rand_sets[39]: 316
Assign rand_sets[40]: 852  LLC: 1024
Assign rand_sets[40]: 341  LLC: 1024
rand_sets[40]: 341
Assign rand_sets[41]: 47  LLC: 1024
rand_sets[41]: 47
Assign rand_sets[42]: 823  LLC: 1024
rand_sets[42]: 823
Assign rand_sets[43]: 686  LLC: 1024
rand_sets[43]: 686
Assign rand_sets[44]: 613  LLC: 1024
rand_sets[44]: 613
Assign rand_sets[45]: 91  LLC: 1024
rand_sets[45]: 91
Assign rand_sets[46]: 986  LLC: 1024
rand_sets[46]: 986
Assign rand_sets[47]: 258  LLC: 1024
rand_sets[47]: 258
Assign rand_sets[48]: 633  LLC: 1024
rand_sets[48]: 633
Assign rand_sets[49]: 920  LLC: 1024
rand_sets[49]: 920
Assign rand_sets[50]: 204  LLC: 1024
rand_sets[50]: 204
Assign rand_sets[51]: 227  LLC: 1024
rand_sets[51]: 227
Assign rand_sets[52]: 794  LLC: 1024
rand_sets[52]: 794
Assign rand_sets[53]: 886  LLC: 1024
rand_sets[53]: 886
Assign rand_sets[54]: 398  LLC: 1024
rand_sets[54]: 398
Assign rand_sets[55]: 607  LLC: 1024
rand_sets[55]: 607
Assign rand_sets[56]: 217  LLC: 1024
rand_sets[56]: 217
Assign rand_sets[57]: 921  LLC: 1024
rand_sets[57]: 921
Assign rand_sets[58]: 143  LLC: 1024
rand_sets[58]: 143
Assign rand_sets[59]: 287  LLC: 1024
rand_sets[59]: 287
Assign rand_sets[60]: 319  LLC: 1024
rand_sets[60]: 319
Assign rand_sets[61]: 822  LLC: 1024
rand_sets[61]: 822
Assign rand_sets[62]: 238  LLC: 1024
rand_sets[62]: 238
Assign rand_sets[63]: 67  LLC: 1024
rand_sets[63]: 67
Heartbeat CPU 0 instructions: 10000002 cycles: 2954807 heartbeat IPC: 3.38432 cumulative IPC: 3.38432 (Simulation time: 0 hr 0 min 5 sec) 
Heartbeat CPU 0 instructions: 20000002 cycles: 6307663 heartbeat IPC: 2.98253 cumulative IPC: 3.17075 (Simulation time: 0 hr 0 min 15 sec) 
Heartbeat CPU 0 instructions: 30000002 cycles: 9663361 heartbeat IPC: 2.98001 cumulative IPC: 3.10451 (Simulation time: 0 hr 0 min 25 sec) 

Warmup complete CPU 0 instructions: 30000002 cycles: 9663361 (Simulation time: 0 hr 0 min 25 sec) 

Heartbeat CPU 0 instructions: 40000000 cycles: 56720341 heartbeat IPC: 0.212508 cumulative IPC: 0.212508 (Simulation time: 0 hr 0 min 38 sec) 
Heartbeat CPU 0 instructions: 50000000 cycles: 113517689 heartbeat IPC: 0.176065 cumulative IPC: 0.192577 (Simulation time: 0 hr 0 min 52 sec) 
Heartbeat CPU 0 instructions: 60000000 cycles: 178732231 heartbeat IPC: 0.15334 cumulative IPC: 0.177442 (Simulation time: 0 hr 1 min 8 sec) 
Heartbeat CPU 0 instructions: 70000002 cycles: 228032203 heartbeat IPC: 0.20284 cumulative IPC: 0.183176 (Simulation time: 0 hr 1 min 21 sec) 
Heartbeat CPU 0 instructions: 80000001 cycles: 236137497 heartbeat IPC: 1.23376 cumulative IPC: 0.220776 (Simulation time: 0 hr 1 min 26 sec) 
Heartbeat CPU 0 instructions: 90000002 cycles: 265657637 heartbeat IPC: 0.338752 cumulative IPC: 0.23438 (Simulation time: 0 hr 1 min 39 sec) 
Finished CPU 0 instructions: 60000000 cycles: 255994276 cumulative IPC: 0.23438 (Simulation time: 0 hr 1 min 39 sec) 

ChampSim completed all CPUs

Region of Interest Statistics

CPU 0 cumulative IPC: 0.23438 instructions: 60000000 cycles: 255994276
L1D TOTAL     ACCESS:   11385631  HIT:    9844448  MISS:    1541183
L1D LOAD      ACCESS:   10103156  HIT:    8596489  MISS:    1506667
L1D RFO       ACCESS:    1282475  HIT:    1247959  MISS:      34516
L1D PREFETCH  ACCESS:          0  HIT:          0  MISS:          0
L1D WRITEBACK ACCESS:          0  HIT:          0  MISS:          0
L1D PREFETCH  REQUESTED:          0  ISSUED:          0  USEFUL:          0  USELESS:          0
L1D AVERAGE MISS LATENCY: 137.621 cycles
L1I TOTAL     ACCESS:   12323904  HIT:   12323889  MISS:         15
L1I LOAD      ACCESS:   12323904  HIT:   12323889  MISS:         15
L1I RFO       ACCESS:          0  HIT:          0  MISS:          0
L1I PREFETCH  ACCESS:          0  HIT:          0  MISS:          0
L1I WRITEBACK ACCESS:          0  HIT:          0  MISS:          0
L1I PREFETCH  REQUESTED:          0  ISSUED:          0  USEFUL:          0  USELESS:          0
L1I AVERAGE MISS LATENCY: 291.867 cycles
L2C TOTAL     ACCESS:    3082092  HIT:    1233385  MISS:    1848707
L2C LOAD      ACCESS:    1506504  HIT:     611176  MISS:     895328
L2C RFO       ACCESS:      34516  HIT:       5194  MISS:      29322
L2C PREFETCH  ACCESS:          0  HIT:          0  MISS:          0
L2C WRITEBACK ACCESS:    1541072  HIT:     617015  MISS:     924057
L2C PREFETCH  REQUESTED:          0  ISSUED:          0  USEFUL:          0  USELESS:          0
L2C AVERAGE MISS LATENCY: 101.943 cycles
LLC TOTAL     ACCESS:    2773357  HIT:     528987  MISS:    2244370
LLC LOAD      ACCESS:     895327  HIT:       8509  MISS:     886818
LLC RFO       ACCESS:      29322  HIT:        807  MISS:      28515
LLC PREFETCH  ACCESS:          0  HIT:          0  MISS:          0
LLC WRITEBACK ACCESS:    1848708  HIT:     519671  MISS:    1329037
LLC PREFETCH  REQUESTED:          0  ISSUED:          0  USEFUL:          0  USELESS:          0
LLC AVERAGE MISS LATENCY: 71.5507 cycles
Major fault: 0 Minor fault: 27003

DRAM Statistics
 CHANNEL 0
 RQ ROW_BUFFER_HIT:       6131  ROW_BUFFER_MISS:     909202
 DBUS_CONGESTED:    1173477
 WQ ROW_BUFFER_HIT:    1080056  ROW_BUFFER_MISS:    1150817  FULL:       4160

 AVG_CONGESTED_CYCLE: 6

CPU 0 Branch Prediction Accuracy: 85.3403% MPKI: 33.026 Average ROB Occupancy at Mispredict: 6.263

Branch types
NOT_BRANCH: 46482591 77.471%
BRANCH_DIRECT_JUMP: 1748 0.00291333%
BRANCH_INDIRECT: 1 1.66667e-06%
BRANCH_CONDITIONAL: 13515155 22.5253%
BRANCH_DIRECT_CALL: 64 0.000106667%
BRANCH_INDIRECT_CALL: 3 5e-06%
BRANCH_RETURN: 67 0.000111667%
BRANCH_OTHER: 0 0%

